# generated using pymatgen
data_Hf5Si3
_symmetry_space_group_name_H-M   'P 1'
_cell_length_a   7.88998159
_cell_length_b   7.88998159
_cell_length_c   5.51148452
_cell_angle_alpha   90.00000000
_cell_angle_beta   90.00000000
_cell_angle_gamma   120.00000004
_symmetry_Int_Tables_number   1
_chemical_formula_structural   Hf5Si3
_chemical_formula_sum   'Hf10 Si6'
_cell_volume   297.13321578
_cell_formula_units_Z   2
loop_
 _symmetry_equiv_pos_site_id
 _symmetry_equiv_pos_as_xyz
  1  'x, y, z'
loop_
 _atom_site_type_symbol
 _atom_site_label
 _atom_site_symmetry_multiplicity
 _atom_site_fract_x
 _atom_site_fract_y
 _atom_site_fract_z
 _atom_site_occupancy
  Si  Si0  1  0.39064519  0.00000000  0.75000000  1
  Si  Si1  1  0.39064519  0.39064519  0.25000000  1
  Si  Si2  1  0.00000000  0.60935481  0.25000000  1
  Si  Si3  1  0.00000000  0.39064519  0.75000000  1
  Si  Si4  1  0.60935481  0.60935481  0.75000000  1
  Si  Si5  1  0.60935481  0.00000000  0.25000000  1
  Hf  Hf6  1  0.00000000  0.74703013  0.75000000  1
  Hf  Hf7  1  0.00000000  0.25296987  0.25000000  1
  Hf  Hf8  1  0.74703013  0.74703013  0.25000000  1
  Hf  Hf9  1  0.74703013  0.00000000  0.75000000  1
  Hf  Hf10  1  0.25296987  0.25296987  0.75000000  1
  Hf  Hf11  1  0.25296987  0.00000000  0.25000000  1
  Hf  Hf12  1  0.33333333  0.66666667  0.50000000  1
  Hf  Hf13  1  0.66666667  0.33333333  0.00000000  1
  Hf  Hf14  1  0.66666667  0.33333333  0.50000000  1
  Hf  Hf15  1  0.33333333  0.66666667  0.00000000  1
