# generated using pymatgen
data_KPt2Se3
_symmetry_space_group_name_H-M   'P 1'
_cell_length_a   7.87060170
_cell_length_b   7.87060170
_cell_length_c   7.87060169
_cell_angle_alpha   57.26620418
_cell_angle_beta   57.26620419
_cell_angle_gamma   57.26620417
_symmetry_Int_Tables_number   1
_chemical_formula_structural   KPt2Se3
_chemical_formula_sum   'K2 Pt4 Se6'
_cell_volume   323.05097830
_cell_formula_units_Z   2
loop_
 _symmetry_equiv_pos_site_id
 _symmetry_equiv_pos_as_xyz
  1  'x, y, z'
loop_
 _atom_site_type_symbol
 _atom_site_label
 _atom_site_symmetry_multiplicity
 _atom_site_fract_x
 _atom_site_fract_y
 _atom_site_fract_z
 _atom_site_occupancy
  K  K0  1  0.20035191  0.20035191  0.20035191  1
  K  K1  1  0.79964809  0.79964809  0.79964809  1
  Se  Se2  1  0.76651230  0.76651230  0.27943749  1
  Se  Se3  1  0.23348770  0.72056251  0.23348770  1
  Se  Se4  1  0.76651230  0.27943749  0.76651230  1
  Se  Se5  1  0.27943749  0.76651230  0.76651230  1
  Se  Se6  1  0.23348770  0.23348770  0.72056251  1
  Se  Se7  1  0.72056251  0.23348770  0.23348770  1
  Pt  Pt8  1  0.00000000  0.00000000  0.00000000  1
  Pt  Pt9  1  0.50000000  0.00000000  0.50000000  1
  Pt  Pt10  1  0.00000000  0.50000000  0.50000000  1
  Pt  Pt11  1  0.50000000  0.50000000  0.00000000  1
