# generated using pymatgen
data_Sc2Si2Ru
_symmetry_space_group_name_H-M   'P 1'
_cell_length_a   4.08872168
_cell_length_b   5.44749745
_cell_length_c   8.66046977
_cell_angle_alpha   81.36780120
_cell_angle_beta   76.34608757
_cell_angle_gamma   67.95810803
_symmetry_Int_Tables_number   1
_chemical_formula_structural   Sc2Si2Ru
_chemical_formula_sum   'Sc4 Si4 Ru2'
_cell_volume   173.33985871
_cell_formula_units_Z   2
loop_
 _symmetry_equiv_pos_site_id
 _symmetry_equiv_pos_as_xyz
  1  'x, y, z'
loop_
 _atom_site_type_symbol
 _atom_site_label
 _atom_site_symmetry_multiplicity
 _atom_site_fract_x
 _atom_site_fract_y
 _atom_site_fract_z
 _atom_site_occupancy
  Si  Si0  1  0.48815755  0.14534285  0.87834204  1
  Si  Si1  1  0.36063141  0.71391258  0.56482460  1
  Si  Si2  1  0.51184245  0.85465715  0.12165796  1
  Si  Si3  1  0.63936859  0.28608742  0.43517540  1
  Sc  Sc4  1  0.81743731  0.25764721  0.10747817  1
  Sc  Sc5  1  0.00468361  0.66749757  0.32313520  1
  Sc  Sc6  1  0.18256269  0.74235279  0.89252183  1
  Sc  Sc7  1  0.99531639  0.33250243  0.67686480  1
  Ru  Ru8  1  0.72980215  0.91086740  0.62952831  1
  Ru  Ru9  1  0.27019785  0.08913260  0.37047169  1
