# generated using pymatgen
data_Ti3Te4
_symmetry_space_group_name_H-M   'P 1'
_cell_length_a   3.81384013
_cell_length_b   7.08072961
_cell_length_c   7.45433571
_cell_angle_alpha   118.03759168
_cell_angle_beta   104.82179709
_cell_angle_gamma   90.00000000
_symmetry_Int_Tables_number   1
_chemical_formula_structural   Ti3Te4
_chemical_formula_sum   'Ti3 Te4'
_cell_volume   170.05148393
_cell_formula_units_Z   1
loop_
 _symmetry_equiv_pos_site_id
 _symmetry_equiv_pos_as_xyz
  1  'x, y, z'
loop_
 _atom_site_type_symbol
 _atom_site_label
 _atom_site_symmetry_multiplicity
 _atom_site_fract_x
 _atom_site_fract_y
 _atom_site_fract_z
 _atom_site_occupancy
  Ti  Ti0  1  0.00000000  0.00000000  0.00000000  1
  Ti  Ti1  1  0.75281541  0.70481659  0.50563082  1
  Ti  Ti2  1  0.24718459  0.29518341  0.49436918  1
  Te  Te3  1  0.63480918  0.95898136  0.26961836  1
  Te  Te4  1  0.36519082  0.04101864  0.73038164  1
  Te  Te5  1  0.10700313  0.44849448  0.21400626  1
  Te  Te6  1  0.89299687  0.55150552  0.78599374  1
