# generated using pymatgen
data_Al9Co2
_symmetry_space_group_name_H-M   'P 1'
_cell_length_a   6.19893515
_cell_length_b   6.27843808
_cell_length_c   8.56062350
_cell_angle_alpha   90.00000000
_cell_angle_beta   94.88066614
_cell_angle_gamma   90.00000000
_symmetry_Int_Tables_number   1
_chemical_formula_structural   Al9Co2
_chemical_formula_sum   'Al18 Co4'
_cell_volume   331.96822714
_cell_formula_units_Z   2
loop_
 _symmetry_equiv_pos_site_id
 _symmetry_equiv_pos_as_xyz
  1  'x, y, z'
loop_
 _atom_site_type_symbol
 _atom_site_label
 _atom_site_symmetry_multiplicity
 _atom_site_fract_x
 _atom_site_fract_y
 _atom_site_fract_z
 _atom_site_occupancy
  Al  Al0  1  0.00000000  0.00000000  0.00000000  1
  Al  Al1  1  0.00000000  0.50000000  0.50000000  1
  Al  Al2  1  0.59435560  0.03383268  0.73255965  1
  Al  Al3  1  0.40564440  0.53383268  0.76744035  1
  Al  Al4  1  0.40564440  0.96616732  0.26744035  1
  Al  Al5  1  0.59435560  0.46616732  0.23255965  1
  Al  Al6  1  0.91235585  0.71022760  0.77071987  1
  Al  Al7  1  0.08764415  0.21022760  0.72928013  1
  Al  Al8  1  0.08764415  0.28977240  0.22928013  1
  Al  Al9  1  0.91235585  0.78977240  0.27071987  1
  Al  Al10  1  0.60984484  0.80827001  0.00233675  1
  Al  Al11  1  0.39015516  0.30827001  0.49766325  1
  Al  Al12  1  0.39015516  0.19172999  0.99766325  1
  Al  Al13  1  0.60984484  0.69172999  0.50233675  1
  Al  Al14  1  0.78406064  0.38594999  0.95600586  1
  Al  Al15  1  0.21593936  0.88594999  0.54399414  1
  Al  Al16  1  0.21593936  0.61405001  0.04399414  1
  Al  Al17  1  0.78406064  0.11405001  0.45600586  1
  Co  Co18  1  0.73627380  0.38153203  0.66648598  1
  Co  Co19  1  0.26372620  0.88153203  0.83351402  1
  Co  Co20  1  0.26372620  0.61846797  0.33351402  1
  Co  Co21  1  0.73627380  0.11846797  0.16648598  1
