# generated using pymatgen
data_Hf2Ga3
_symmetry_space_group_name_H-M   'P 1'
_cell_length_a   5.47034599
_cell_length_b   5.47034599
_cell_length_c   7.36408425
_cell_angle_alpha   100.88389850
_cell_angle_beta   100.88389850
_cell_angle_gamma   119.44770886
_symmetry_Int_Tables_number   1
_chemical_formula_structural   Hf2Ga3
_chemical_formula_sum   'Hf4 Ga6'
_cell_volume   177.93113885
_cell_formula_units_Z   2
loop_
 _symmetry_equiv_pos_site_id
 _symmetry_equiv_pos_as_xyz
  1  'x, y, z'
loop_
 _atom_site_type_symbol
 _atom_site_label
 _atom_site_symmetry_multiplicity
 _atom_site_fract_x
 _atom_site_fract_y
 _atom_site_fract_z
 _atom_site_occupancy
  Hf  Hf0  1  0.11580435  0.98061938  0.60462009  1
  Hf  Hf1  1  0.37599929  0.51118426  0.39537991  1
  Hf  Hf2  1  0.23061938  0.86580435  0.10462009  1
  Hf  Hf3  1  0.76118426  0.12599929  0.89537991  1
  Ga  Ga4  1  0.62310799  0.12310799  0.50000000  1
  Ga  Ga5  1  0.37310799  0.37310799  -0.00000000  1
  Ga  Ga6  1  0.71205716  0.57375678  0.77072557  1
  Ga  Ga7  1  0.80303121  0.94133159  0.22927443  1
  Ga  Ga8  1  0.82375678  0.46205716  0.27072557  1
  Ga  Ga9  1  0.19133159  0.55303121  0.72927443  1
