# generated using pymatgen
data_NbNi3
_symmetry_space_group_name_H-M   'P 1'
_cell_length_a   4.25966651
_cell_length_b   4.58367371
_cell_length_c   5.11192189
_cell_angle_alpha   90.00000000
_cell_angle_beta   90.00000000
_cell_angle_gamma   90.00000000
_symmetry_Int_Tables_number   1
_chemical_formula_structural   NbNi3
_chemical_formula_sum   'Nb2 Ni6'
_cell_volume   99.80987308
_cell_formula_units_Z   2
loop_
 _symmetry_equiv_pos_site_id
 _symmetry_equiv_pos_as_xyz
  1  'x, y, z'
loop_
 _atom_site_type_symbol
 _atom_site_label
 _atom_site_symmetry_multiplicity
 _atom_site_fract_x
 _atom_site_fract_y
 _atom_site_fract_z
 _atom_site_occupancy
  Nb  Nb0  1  0.75000000  0.34967227  0.75000000  1
  Nb  Nb1  1  0.25000000  0.65032773  0.25000000  1
  Ni  Ni2  1  0.75000000  0.84091130  0.99910781  1
  Ni  Ni3  1  0.75000000  0.84091130  0.50089219  1
  Ni  Ni4  1  0.25000000  0.15908870  0.00089219  1
  Ni  Ni5  1  0.25000000  0.15908870  0.49910781  1
  Ni  Ni6  1  0.25000000  0.68152636  0.75000000  1
  Ni  Ni7  1  0.75000000  0.31847364  0.25000000  1
