# generated using pymatgen
data_TiO2
_symmetry_space_group_name_H-M   'P 1'
_cell_length_a   5.18107495
_cell_length_b   5.51182423
_cell_length_c   9.27393462
_cell_angle_alpha   90.00000000
_cell_angle_beta   90.00000000
_cell_angle_gamma   90.00000000
_symmetry_Int_Tables_number   1
_chemical_formula_structural   TiO2
_chemical_formula_sum   'Ti8 O16'
_cell_volume   264.83736875
_cell_formula_units_Z   8
loop_
 _symmetry_equiv_pos_site_id
 _symmetry_equiv_pos_as_xyz
  1  'x, y, z'
loop_
 _atom_site_type_symbol
 _atom_site_label
 _atom_site_symmetry_multiplicity
 _atom_site_fract_x
 _atom_site_fract_y
 _atom_site_fract_z
 _atom_site_occupancy
  O  O0  1  0.46431460  0.39186209  0.72972740  1
  O  O1  1  0.96431460  0.60813791  0.77027260  1
  O  O2  1  0.03568540  0.89186209  0.27027260  1
  O  O3  1  0.53568540  0.10813791  0.22972740  1
  O  O4  1  0.53568540  0.60813791  0.27027260  1
  O  O5  1  0.03568540  0.39186209  0.22972740  1
  O  O6  1  0.96431460  0.10813791  0.72972740  1
  O  O7  1  0.46431460  0.89186209  0.77027260  1
  O  O8  1  0.81656633  0.85167838  0.98969286  1
  O  O9  1  0.31656633  0.14832162  0.51030714  1
  O  O10  1  0.68343367  0.35167838  0.01030714  1
  O  O11  1  0.18343367  0.64832162  0.48969286  1
  O  O12  1  0.18343367  0.14832162  0.01030714  1
  O  O13  1  0.68343367  0.85167838  0.48969286  1
  O  O14  1  0.31656633  0.64832162  0.98969286  1
  O  O15  1  0.81656633  0.35167838  0.51030714  1
  Ti  Ti16  1  0.13814582  0.40726473  0.62898669  1
  Ti  Ti17  1  0.63814582  0.59273527  0.87101331  1
  Ti  Ti18  1  0.36185418  0.90726473  0.37101331  1
  Ti  Ti19  1  0.86185418  0.09273527  0.12898669  1
  Ti  Ti20  1  0.86185418  0.59273527  0.37101331  1
  Ti  Ti21  1  0.36185418  0.40726473  0.12898669  1
  Ti  Ti22  1  0.63814582  0.09273527  0.62898669  1
  Ti  Ti23  1  0.13814582  0.90726473  0.87101331  1
