# generated using pymatgen
data_Nb2ZnO6
_symmetry_space_group_name_H-M   'P 1'
_cell_length_a   5.09056306
_cell_length_b   5.85056266
_cell_length_c   14.41215951
_cell_angle_alpha   90.00000000
_cell_angle_beta   90.00000000
_cell_angle_gamma   90.00000000
_symmetry_Int_Tables_number   1
_chemical_formula_structural   Nb2ZnO6
_chemical_formula_sum   'Nb8 Zn4 O24'
_cell_volume   429.23241999
_cell_formula_units_Z   4
loop_
 _symmetry_equiv_pos_site_id
 _symmetry_equiv_pos_as_xyz
  1  'x, y, z'
loop_
 _atom_site_type_symbol
 _atom_site_label
 _atom_site_symmetry_multiplicity
 _atom_site_fract_x
 _atom_site_fract_y
 _atom_site_fract_z
 _atom_site_occupancy
  O  O0  1  0.91800888  0.37510498  0.25519284  1
  O  O1  1  0.41800888  0.12489502  0.24480716  1
  O  O2  1  0.58199112  0.37510498  0.74480716  1
  O  O3  1  0.08199112  0.12489502  0.75519284  1
  O  O4  1  0.08199112  0.62489502  0.74480716  1
  O  O5  1  0.58199112  0.87510498  0.75519284  1
  O  O6  1  0.41800888  0.62489502  0.25519284  1
  O  O7  1  0.91800888  0.87510498  0.24480716  1
  O  O8  1  0.91305603  0.38145929  0.92088669  1
  O  O9  1  0.41305603  0.11854071  0.57911331  1
  O  O10  1  0.58694397  0.38145929  0.07911331  1
  O  O11  1  0.08694397  0.11854071  0.42088669  1
  O  O12  1  0.92851993  0.89477327  0.90367991  1
  O  O13  1  0.42851993  0.60522673  0.59632009  1
  O  O14  1  0.57148007  0.89477327  0.09632009  1
  O  O15  1  0.07148007  0.60522673  0.40367991  1
  O  O16  1  0.07148007  0.10522673  0.09632009  1
  O  O17  1  0.57148007  0.39477327  0.40367991  1
  O  O18  1  0.42851993  0.10522673  0.90367991  1
  O  O19  1  0.92851993  0.39477327  0.59632009  1
  O  O20  1  0.91305603  0.88145929  0.57911331  1
  O  O21  1  0.41305603  0.61854071  0.92088669  1
  O  O22  1  0.58694397  0.88145929  0.42088669  1
  O  O23  1  0.08694397  0.61854071  0.07911331  1
  Zn  Zn24  1  0.75000000  0.67105522  0.00000000  1
  Zn  Zn25  1  0.25000000  0.82894478  0.50000000  1
  Zn  Zn26  1  0.25000000  0.32894478  0.00000000  1
  Zn  Zn27  1  0.75000000  0.17105522  0.50000000  1
  Nb  Nb28  1  0.74654505  0.68293349  0.33984196  1
  Nb  Nb29  1  0.24654505  0.81706651  0.16015804  1
  Nb  Nb30  1  0.75345495  0.68293349  0.66015804  1
  Nb  Nb31  1  0.25345495  0.81706651  0.83984196  1
  Nb  Nb32  1  0.74654505  0.18293349  0.16015804  1
  Nb  Nb33  1  0.24654505  0.31706651  0.33984196  1
  Nb  Nb34  1  0.75345495  0.18293349  0.83984196  1
  Nb  Nb35  1  0.25345495  0.31706651  0.66015804  1
