# generated using pymatgen
data_CoAsS
_symmetry_space_group_name_H-M   'P 1'
_cell_length_a   5.58405165
_cell_length_b   5.58405165
_cell_length_c   5.58405165
_cell_angle_alpha   90.00000000
_cell_angle_beta   90.00000000
_cell_angle_gamma   90.00000000
_symmetry_Int_Tables_number   1
_chemical_formula_structural   CoAsS
_chemical_formula_sum   'Co4 As4 S4'
_cell_volume   174.11984825
_cell_formula_units_Z   4
loop_
 _symmetry_equiv_pos_site_id
 _symmetry_equiv_pos_as_xyz
  1  'x, y, z'
loop_
 _atom_site_type_symbol
 _atom_site_label
 _atom_site_symmetry_multiplicity
 _atom_site_fract_x
 _atom_site_fract_y
 _atom_site_fract_z
 _atom_site_occupancy
  S  S0  1  0.38094347  0.11905653  0.88094347  1
  S  S1  1  0.88094347  0.38094347  0.11905653  1
  S  S2  1  0.11905653  0.88094347  0.38094347  1
  S  S3  1  0.61905653  0.61905653  0.61905653  1
  Co  Co4  1  0.50798309  0.49201691  0.99201691  1
  Co  Co5  1  0.49201691  0.99201691  0.50798309  1
  Co  Co6  1  0.00798309  0.00798309  0.00798309  1
  Co  Co7  1  0.99201691  0.50798309  0.49201691  1
  As  As8  1  0.62141093  0.87858907  0.12141093  1
  As  As9  1  0.12141093  0.62141093  0.87858907  1
  As  As10  1  0.37858907  0.37858907  0.37858907  1
  As  As11  1  0.87858907  0.12141093  0.62141093  1
