# generated using pymatgen
data_Co3Se4
_symmetry_space_group_name_H-M   'P 1'
_cell_length_a   3.57437161
_cell_length_b   6.16478058
_cell_length_c   6.16955018
_cell_angle_alpha   118.04064662
_cell_angle_beta   106.83870698
_cell_angle_gamma   90.00000002
_symmetry_Int_Tables_number   1
_chemical_formula_structural   Co3Se4
_chemical_formula_sum   'Co3 Se4'
_cell_volume   113.34248468
_cell_formula_units_Z   1
loop_
 _symmetry_equiv_pos_site_id
 _symmetry_equiv_pos_as_xyz
  1  'x, y, z'
loop_
 _atom_site_type_symbol
 _atom_site_label
 _atom_site_symmetry_multiplicity
 _atom_site_fract_x
 _atom_site_fract_y
 _atom_site_fract_z
 _atom_site_occupancy
  Co  Co0  1  0.76122287  0.78065948  0.52244575  1
  Co  Co1  1  0.23877713  0.21934052  0.47755425  1
  Co  Co2  1  0.50000000  0.50000000  0.00000000  1
  Se  Se3  1  0.13382352  0.47559356  0.26764704  1
  Se  Se4  1  0.86617648  0.52440644  0.73235296  1
  Se  Se5  1  0.62235785  0.95551269  0.24471569  1
  Se  Se6  1  0.37764215  0.04448731  0.75528431  1
