# generated using pymatgen
data_LiSn4Rh
_symmetry_space_group_name_H-M   'P 1'
_cell_length_a   6.70437849
_cell_length_b   6.70437849
_cell_length_c   7.45833174
_cell_angle_alpha   116.70876351
_cell_angle_beta   116.70876358
_cell_angle_gamma   90.00000002
_symmetry_Int_Tables_number   1
_chemical_formula_structural   LiSn4Rh
_chemical_formula_sum   'Li2 Sn8 Rh2'
_cell_volume   258.80598659
_cell_formula_units_Z   2
loop_
 _symmetry_equiv_pos_site_id
 _symmetry_equiv_pos_as_xyz
  1  'x, y, z'
loop_
 _atom_site_type_symbol
 _atom_site_label
 _atom_site_symmetry_multiplicity
 _atom_site_fract_x
 _atom_site_fract_y
 _atom_site_fract_z
 _atom_site_occupancy
  Li  Li0  1  0.00000000  0.00000000  0.00000000  1
  Li  Li1  1  0.50000000  0.50000000  0.00000000  1
  Rh  Rh2  1  0.25000000  0.25000000  0.50000000  1
  Rh  Rh3  1  0.75000000  0.75000000  0.50000000  1
  Sn  Sn4  1  0.52384498  0.70389081  0.72773579  1
  Sn  Sn5  1  0.02384498  0.52384498  0.72773579  1
  Sn  Sn6  1  0.70389081  0.20389081  0.72773579  1
  Sn  Sn7  1  0.29610919  0.79610919  0.27226421  1
  Sn  Sn8  1  0.97615502  0.47615502  0.27226421  1
  Sn  Sn9  1  0.47615502  0.29610919  0.27226421  1
  Sn  Sn10  1  0.79610919  0.97615502  0.27226421  1
  Sn  Sn11  1  0.20389081  0.02384498  0.72773579  1
