# generated using pymatgen
data_Hf3Rh5
_symmetry_space_group_name_H-M   'P 1'
_cell_length_a   4.30273969
_cell_length_b   5.61773512
_cell_length_c   10.92235169
_cell_angle_alpha   90.00000000
_cell_angle_beta   90.00000000
_cell_angle_gamma   90.00000000
_symmetry_Int_Tables_number   1
_chemical_formula_structural   Hf3Rh5
_chemical_formula_sum   'Hf6 Rh10'
_cell_volume   264.01128264
_cell_formula_units_Z   2
loop_
 _symmetry_equiv_pos_site_id
 _symmetry_equiv_pos_as_xyz
  1  'x, y, z'
loop_
 _atom_site_type_symbol
 _atom_site_label
 _atom_site_symmetry_multiplicity
 _atom_site_fract_x
 _atom_site_fract_y
 _atom_site_fract_z
 _atom_site_occupancy
  Rh  Rh0  1  0.50000000  0.18272474  0.89271681  1
  Rh  Rh1  1  0.50000000  0.81727526  0.10728319  1
  Rh  Rh2  1  0.50000000  0.68272474  0.60728319  1
  Rh  Rh3  1  0.50000000  0.31727526  0.39271681  1
  Rh  Rh4  1  0.00000000  0.39887499  0.74210628  1
  Rh  Rh5  1  0.00000000  0.60112501  0.25789372  1
  Rh  Rh6  1  0.00000000  0.00000000  0.50000000  1
  Rh  Rh7  1  0.00000000  0.50000000  0.00000000  1
  Rh  Rh8  1  0.00000000  0.10112501  0.24210628  1
  Rh  Rh9  1  0.00000000  0.89887499  0.75789372  1
  Hf  Hf10  1  0.50000000  0.15630714  0.64551801  1
  Hf  Hf11  1  0.50000000  0.84369286  0.35448199  1
  Hf  Hf12  1  0.50000000  0.65630714  0.85448199  1
  Hf  Hf13  1  0.50000000  0.34369286  0.14551801  1
  Hf  Hf14  1  0.00000000  0.50000000  0.50000000  1
  Hf  Hf15  1  0.00000000  0.00000000  0.00000000  1
