# generated using pymatgen
data_Y2Al
_symmetry_space_group_name_H-M   'P 1'
_cell_length_a   5.11495571
_cell_length_b   6.60678035
_cell_length_c   9.49106231
_cell_angle_alpha   90.00000000
_cell_angle_beta   90.00000000
_cell_angle_gamma   90.00000000
_symmetry_Int_Tables_number   1
_chemical_formula_structural   Y2Al
_chemical_formula_sum   'Y8 Al4'
_cell_volume   320.73515949
_cell_formula_units_Z   4
loop_
 _symmetry_equiv_pos_site_id
 _symmetry_equiv_pos_as_xyz
  1  'x, y, z'
loop_
 _atom_site_type_symbol
 _atom_site_label
 _atom_site_symmetry_multiplicity
 _atom_site_fract_x
 _atom_site_fract_y
 _atom_site_fract_z
 _atom_site_occupancy
  Al  Al0  1  0.75000000  0.70919771  0.89626587  1
  Al  Al1  1  0.25000000  0.29080229  0.10373413  1
  Al  Al2  1  0.75000000  0.20919771  0.60373413  1
  Al  Al3  1  0.25000000  0.79080229  0.39626587  1
  Y  Y4  1  0.75000000  0.18647106  0.92731165  1
  Y  Y5  1  0.25000000  0.81352894  0.07268835  1
  Y  Y6  1  0.75000000  0.68647106  0.57268835  1
  Y  Y7  1  0.25000000  0.31352894  0.42731165  1
  Y  Y8  1  0.75000000  0.02715468  0.29183026  1
  Y  Y9  1  0.25000000  0.97284532  0.70816974  1
  Y  Y10  1  0.75000000  0.52715468  0.20816974  1
  Y  Y11  1  0.25000000  0.47284532  0.79183026  1
