# generated using pymatgen
data_LiSn
_symmetry_space_group_name_H-M   'P 1'
_cell_length_a   4.44482400
_cell_length_b   4.44482401
_cell_length_c   13.41148038
_cell_angle_alpha   99.53846312
_cell_angle_beta   99.53846313
_cell_angle_gamma   90.00000004
_symmetry_Int_Tables_number   1
_chemical_formula_structural   LiSn
_chemical_formula_sum   'Li6 Sn6'
_cell_volume   257.58483063
_cell_formula_units_Z   6
loop_
 _symmetry_equiv_pos_site_id
 _symmetry_equiv_pos_as_xyz
  1  'x, y, z'
loop_
 _atom_site_type_symbol
 _atom_site_label
 _atom_site_symmetry_multiplicity
 _atom_site_fract_x
 _atom_site_fract_y
 _atom_site_fract_z
 _atom_site_occupancy
  Li  Li0  1  0.03833689  0.78833689  0.57667378  1
  Li  Li1  1  0.28833689  0.53833689  0.07667378  1
  Li  Li2  1  0.96166311  0.21166311  0.42332622  1
  Li  Li3  1  0.71166311  0.46166311  0.92332622  1
  Li  Li4  1  0.12500000  0.37500000  0.75000000  1
  Li  Li5  1  0.87500000  0.62500000  0.25000000  1
  Sn  Sn6  1  0.62500000  0.87500000  0.75000000  1
  Sn  Sn7  1  0.37500000  0.12500000  0.25000000  1
  Sn  Sn8  1  0.20507267  0.95507267  0.91014534  1
  Sn  Sn9  1  0.45507267  0.70507267  0.41014534  1
  Sn  Sn10  1  0.79492733  0.04492733  0.08985466  1
  Sn  Sn11  1  0.54492733  0.29492733  0.58985466  1
