# generated using pymatgen
data_BaCoO2
_symmetry_space_group_name_H-M   'P 1'
_cell_length_a   5.96314709
_cell_length_b   5.96314708
_cell_length_c   6.80448496
_cell_angle_alpha   90.00000000
_cell_angle_beta   90.00000000
_cell_angle_gamma   119.99999999
_symmetry_Int_Tables_number   1
_chemical_formula_structural   BaCoO2
_chemical_formula_sum   'Ba3 Co3 O6'
_cell_volume   209.54482204
_cell_formula_units_Z   3
loop_
 _symmetry_equiv_pos_site_id
 _symmetry_equiv_pos_as_xyz
  1  'x, y, z'
loop_
 _atom_site_type_symbol
 _atom_site_label
 _atom_site_symmetry_multiplicity
 _atom_site_fract_x
 _atom_site_fract_y
 _atom_site_fract_z
 _atom_site_occupancy
  O  O0  1  0.12610567  0.42485866  0.87428888  1
  O  O1  1  0.57514113  0.70124596  0.20762207  1
  O  O2  1  0.29875319  0.87389535  0.54095548  1
  O  O3  1  0.70124672  0.57514330  0.79237814  1
  O  O4  1  0.87389561  0.29875403  0.45904474  1
  O  O5  1  0.42485827  0.12610463  0.12571133  1
  Co  Co6  1  0.58379976  0.00000000  0.33333340  1
  Co  Co7  1  0.00000009  0.58379995  0.66666681  1
  Co  Co8  1  0.41620059  0.41620004  0.00000000  1
  Ba  Ba9  1  0.65315601  0.00000000  0.83333278  1
  Ba  Ba10  1  0.99999928  0.65315457  0.16666597  1
  Ba  Ba11  1  0.34684515  0.34684541  0.49999938  1
