# generated using pymatgen
data_Te2O5
_symmetry_space_group_name_H-M   'P 1'
_cell_length_a   4.79660291
_cell_length_b   5.51281309
_cell_length_c   8.15928925
_cell_angle_alpha   102.84464664
_cell_angle_beta   90.00000000
_cell_angle_gamma   90.00000000
_symmetry_Int_Tables_number   1
_chemical_formula_structural   Te2O5
_chemical_formula_sum   'Te4 O10'
_cell_volume   210.35530887
_cell_formula_units_Z   2
loop_
 _symmetry_equiv_pos_site_id
 _symmetry_equiv_pos_as_xyz
  1  'x, y, z'
loop_
 _atom_site_type_symbol
 _atom_site_label
 _atom_site_symmetry_multiplicity
 _atom_site_fract_x
 _atom_site_fract_y
 _atom_site_fract_z
 _atom_site_occupancy
  O  O0  1  0.04210962  0.87983571  0.51212161  1
  O  O1  1  0.54210962  0.12016429  0.48787839  1
  O  O2  1  0.17133114  0.67258190  0.77797828  1
  O  O3  1  0.67133114  0.32741810  0.22202172  1
  O  O4  1  0.80049110  0.82476397  0.20784354  1
  O  O5  1  0.30049110  0.17523603  0.79215646  1
  O  O6  1  0.72522990  0.96492921  0.90233558  1
  O  O7  1  0.22522990  0.03507079  0.09766442  1
  O  O8  1  0.73550080  0.46866780  0.90710605  1
  O  O9  1  0.23550080  0.53133220  0.09289395  1
  Te  Te10  1  0.88517813  0.12972650  0.37276492  1
  Te  Te11  1  0.38517813  0.87027350  0.62723508  1
  Te  Te12  1  0.49166931  0.25640547  0.01017690  1
  Te  Te13  1  0.99166931  0.74359453  0.98982310  1
