# generated using pymatgen
data_MnCoSi
_symmetry_space_group_name_H-M   'P 1'
_cell_length_a   3.66037994
_cell_length_b   5.72787072
_cell_length_c   6.86812959
_cell_angle_alpha   90.00000000
_cell_angle_beta   90.00000000
_cell_angle_gamma   90.00000000
_symmetry_Int_Tables_number   1
_chemical_formula_structural   MnCoSi
_chemical_formula_sum   'Mn4 Co4 Si4'
_cell_volume   143.99846242
_cell_formula_units_Z   4
loop_
 _symmetry_equiv_pos_site_id
 _symmetry_equiv_pos_as_xyz
  1  'x, y, z'
loop_
 _atom_site_type_symbol
 _atom_site_label
 _atom_site_symmetry_multiplicity
 _atom_site_fract_x
 _atom_site_fract_y
 _atom_site_fract_z
 _atom_site_occupancy
  Mn  Mn0  1  0.75000000  0.97274394  0.81596612  1
  Mn  Mn1  1  0.25000000  0.02725606  0.18403388  1
  Mn  Mn2  1  0.75000000  0.47274394  0.68403388  1
  Mn  Mn3  1  0.25000000  0.52725606  0.31596612  1
  Co  Co4  1  0.25000000  0.65786587  0.94026285  1
  Co  Co5  1  0.75000000  0.34213413  0.05973715  1
  Co  Co6  1  0.25000000  0.15786587  0.55973715  1
  Co  Co7  1  0.75000000  0.84213413  0.44026285  1
  Si  Si8  1  0.25000000  0.26656461  0.87679773  1
  Si  Si9  1  0.75000000  0.73343539  0.12320227  1
  Si  Si10  1  0.25000000  0.76656461  0.62320227  1
  Si  Si11  1  0.75000000  0.23343539  0.37679773  1
