# generated using pymatgen
data_ZrPd
_symmetry_space_group_name_H-M   'P 1'
_cell_length_a   3.34106712
_cell_length_b   4.44115596
_cell_length_c   5.48183746
_cell_angle_alpha   90.00000000
_cell_angle_beta   107.74251045
_cell_angle_gamma   90.00000000
_symmetry_Int_Tables_number   1
_chemical_formula_structural   ZrPd
_chemical_formula_sum   'Zr2 Pd2'
_cell_volume   77.47168794
_cell_formula_units_Z   2
loop_
 _symmetry_equiv_pos_site_id
 _symmetry_equiv_pos_as_xyz
  1  'x, y, z'
loop_
 _atom_site_type_symbol
 _atom_site_label
 _atom_site_symmetry_multiplicity
 _atom_site_fract_x
 _atom_site_fract_y
 _atom_site_fract_z
 _atom_site_occupancy
  Zr  Zr0  1  0.85775239  0.75000000  0.71550479  1
  Zr  Zr1  1  0.14224761  0.25000000  0.28449521  1
  Pd  Pd2  1  0.58845746  0.75000000  0.17691492  1
  Pd  Pd3  1  0.41154254  0.25000000  0.82308508  1
