# generated using pymatgen
data_PdF3
_symmetry_space_group_name_H-M   'P 1'
_cell_length_a   5.40914948
_cell_length_b   5.40914948
_cell_length_c   7.27088987
_cell_angle_alpha   90.00000000
_cell_angle_beta   90.00000000
_cell_angle_gamma   120.00000001
_symmetry_Int_Tables_number   1
_chemical_formula_structural   PdF3
_chemical_formula_sum   'Pd3 F9'
_cell_volume   184.23670778
_cell_formula_units_Z   3
loop_
 _symmetry_equiv_pos_site_id
 _symmetry_equiv_pos_as_xyz
  1  'x, y, z'
loop_
 _atom_site_type_symbol
 _atom_site_label
 _atom_site_symmetry_multiplicity
 _atom_site_fract_x
 _atom_site_fract_y
 _atom_site_fract_z
 _atom_site_occupancy
  F  F0  1  0.66328145  0.91552044  0.82033357  1
  F  F1  1  0.08447956  0.74776102  0.82033357  1
  F  F2  1  0.25223898  0.33671855  0.82033357  1
  F  F3  1  0.61368646  0.61368646  0.50000000  1
  F  F4  1  0.38631354  0.00000000  0.50000000  1
  F  F5  1  0.00000000  0.38631354  0.50000000  1
  F  F6  1  0.91552044  0.66328145  0.17966643  1
  F  F7  1  0.33671855  0.25223898  0.17966643  1
  F  F8  1  0.74776102  0.08447956  0.17966643  1
  Pd  Pd9  1  0.66666667  0.33333333  0.34069851  1
  Pd  Pd10  1  0.33333333  0.66666667  0.65930149  1
  Pd  Pd11  1  0.00000000  0.00000000  0.00000000  1
