# generated using pymatgen
data_CaSn2Ir
_symmetry_space_group_name_H-M   'P 1'
_cell_length_a   4.35009685
_cell_length_b   5.88350530
_cell_length_c   7.66668031
_cell_angle_alpha   90.00000000
_cell_angle_beta   90.00000000
_cell_angle_gamma   111.69624176
_symmetry_Int_Tables_number   1
_chemical_formula_structural   CaSn2Ir
_chemical_formula_sum   'Ca2 Sn4 Ir2'
_cell_volume   182.31879821
_cell_formula_units_Z   2
loop_
 _symmetry_equiv_pos_site_id
 _symmetry_equiv_pos_as_xyz
  1  'x, y, z'
loop_
 _atom_site_type_symbol
 _atom_site_label
 _atom_site_symmetry_multiplicity
 _atom_site_fract_x
 _atom_site_fract_y
 _atom_site_fract_z
 _atom_site_occupancy
  Ca  Ca0  1  0.06777179  0.13554358  0.75000000  1
  Ca  Ca1  1  0.93222821  0.86445642  0.25000000  1
  Sn  Sn2  1  0.35575309  0.71150617  0.95345983  1
  Sn  Sn3  1  0.35575309  0.71150617  0.54654017  1
  Sn  Sn4  1  0.64424691  0.28849383  0.04654017  1
  Sn  Sn5  1  0.64424691  0.28849383  0.45345983  1
  Ir  Ir6  1  0.78772561  0.57545123  0.75000000  1
  Ir  Ir7  1  0.21227439  0.42454877  0.25000000  1
