# generated using pymatgen
data_NiAgO2
_symmetry_space_group_name_H-M   'P 1'
_cell_length_a   6.39536410
_cell_length_b   6.39536410
_cell_length_c   6.39536410
_cell_angle_alpha   27.08377446
_cell_angle_beta   27.08377443
_cell_angle_gamma   27.08377444
_symmetry_Int_Tables_number   1
_chemical_formula_structural   NiAgO2
_chemical_formula_sum   'Ni1 Ag1 O2'
_cell_volume   47.83137020
_cell_formula_units_Z   1
loop_
 _symmetry_equiv_pos_site_id
 _symmetry_equiv_pos_as_xyz
  1  'x, y, z'
loop_
 _atom_site_type_symbol
 _atom_site_label
 _atom_site_symmetry_multiplicity
 _atom_site_fract_x
 _atom_site_fract_y
 _atom_site_fract_z
 _atom_site_occupancy
  O  O0  1  0.88794705  0.88794674  0.88794600  1
  O  O1  1  0.11205456  0.11205309  0.11205251  1
  Ni  Ni2  1  0.49999907  0.49999991  0.50000081  1
  Ag  Ag3  1  0.00000000  0.00000000  0.00000000  1
