# generated using pymatgen
data_Ta2Be
_symmetry_space_group_name_H-M   'P 1'
_cell_length_a   4.90599111
_cell_length_b   4.92578149
_cell_length_c   4.92578149
_cell_angle_alpha   75.64109118
_cell_angle_beta   60.13281627
_cell_angle_gamma   60.13281622
_symmetry_Int_Tables_number   1
_chemical_formula_structural   Ta2Be
_chemical_formula_sum   'Ta4 Be2'
_cell_volume   89.51538171
_cell_formula_units_Z   2
loop_
 _symmetry_equiv_pos_site_id
 _symmetry_equiv_pos_as_xyz
  1  'x, y, z'
loop_
 _atom_site_type_symbol
 _atom_site_label
 _atom_site_symmetry_multiplicity
 _atom_site_fract_x
 _atom_site_fract_y
 _atom_site_fract_z
 _atom_site_occupancy
  Be  Be0  1  0.25000000  0.00000000  0.00000000  1
  Be  Be1  1  0.75000000  0.00000000  0.00000000  1
  Ta  Ta2  1  0.16090509  0.50000000  0.17818981  1
  Ta  Ta3  1  0.33909491  0.82181019  0.50000000  1
  Ta  Ta4  1  0.66090509  0.17818981  0.50000000  1
  Ta  Ta5  1  0.83909491  0.50000000  0.82181019  1
