# generated using pymatgen
data_NbSb2
_symmetry_space_group_name_H-M   'P 1'
_cell_length_a   3.67536158
_cell_length_b   5.49377045
_cell_length_c   7.58683975
_cell_angle_alpha   78.40461761
_cell_angle_beta   75.98242381
_cell_angle_gamma   70.45770272
_symmetry_Int_Tables_number   1
_chemical_formula_structural   NbSb2
_chemical_formula_sum   'Nb2 Sb4'
_cell_volume   138.85575114
_cell_formula_units_Z   2
loop_
 _symmetry_equiv_pos_site_id
 _symmetry_equiv_pos_as_xyz
  1  'x, y, z'
loop_
 _atom_site_type_symbol
 _atom_site_label
 _atom_site_symmetry_multiplicity
 _atom_site_fract_x
 _atom_site_fract_y
 _atom_site_fract_z
 _atom_site_occupancy
  Nb  Nb0  1  0.84828733  0.11306368  0.19036166  1
  Nb  Nb1  1  0.15171267  0.88693632  0.80963834  1
  Sb  Sb2  1  0.59499418  0.69847493  0.11153671  1
  Sb  Sb3  1  0.40500582  0.30152507  0.88846329  1
  Sb  Sb4  1  0.14903434  0.23781597  0.46411534  1
  Sb  Sb5  1  0.85096566  0.76218403  0.53588466  1
