# generated using pymatgen
data_YZnGe
_symmetry_space_group_name_H-M   'P 1'
_cell_length_a   4.24290651
_cell_length_b   4.24290650
_cell_length_c   15.79467042
_cell_angle_alpha   90.00000000
_cell_angle_beta   90.00000000
_cell_angle_gamma   119.99999997
_symmetry_Int_Tables_number   1
_chemical_formula_structural   YZnGe
_chemical_formula_sum   'Y4 Zn4 Ge4'
_cell_volume   246.24539881
_cell_formula_units_Z   4
loop_
 _symmetry_equiv_pos_site_id
 _symmetry_equiv_pos_as_xyz
  1  'x, y, z'
loop_
 _atom_site_type_symbol
 _atom_site_label
 _atom_site_symmetry_multiplicity
 _atom_site_fract_x
 _atom_site_fract_y
 _atom_site_fract_z
 _atom_site_occupancy
  Zn  Zn0  1  0.66666667  0.33333333  0.85265878  1
  Zn  Zn1  1  0.66666667  0.33333333  0.64734122  1
  Zn  Zn2  1  0.33333333  0.66666667  0.14734122  1
  Zn  Zn3  1  0.33333333  0.66666667  0.35265878  1
  Ge  Ge4  1  0.66666667  0.33333333  0.11364459  1
  Ge  Ge5  1  0.66666667  0.33333333  0.38635541  1
  Ge  Ge6  1  0.33333333  0.66666667  0.88635541  1
  Ge  Ge7  1  0.33333333  0.66666667  0.61364459  1
  Y  Y8  1  0.00000000  0.00000000  0.75000000  1
  Y  Y9  1  0.00000000  0.00000000  0.25000000  1
  Y  Y10  1  0.00000000  0.00000000  0.50000000  1
  Y  Y11  1  0.00000000  0.00000000  0.00000000  1
