# generated using pymatgen
data_SiNi2
_symmetry_space_group_name_H-M   'P 1'
_cell_length_a   3.73396177
_cell_length_b   4.98297716
_cell_length_c   7.06799994
_cell_angle_alpha   90.00000000
_cell_angle_beta   90.00000000
_cell_angle_gamma   90.00000000
_symmetry_Int_Tables_number   1
_chemical_formula_structural   SiNi2
_chemical_formula_sum   'Si4 Ni8'
_cell_volume   131.50894714
_cell_formula_units_Z   4
loop_
 _symmetry_equiv_pos_site_id
 _symmetry_equiv_pos_as_xyz
  1  'x, y, z'
loop_
 _atom_site_type_symbol
 _atom_site_label
 _atom_site_symmetry_multiplicity
 _atom_site_fract_x
 _atom_site_fract_y
 _atom_site_fract_z
 _atom_site_occupancy
  Si  Si0  1  0.25000000  0.78921363  0.11433391  1
  Si  Si1  1  0.75000000  0.21078637  0.88566609  1
  Si  Si2  1  0.25000000  0.28921363  0.38566609  1
  Si  Si3  1  0.75000000  0.71078637  0.61433391  1
  Ni  Ni4  1  0.25000000  0.95823388  0.79483436  1
  Ni  Ni5  1  0.75000000  0.04176612  0.20516564  1
  Ni  Ni6  1  0.25000000  0.45823388  0.70516564  1
  Ni  Ni7  1  0.75000000  0.54176612  0.29483436  1
  Ni  Ni8  1  0.25000000  0.82951094  0.44000619  1
  Ni  Ni9  1  0.75000000  0.17048906  0.55999381  1
  Ni  Ni10  1  0.25000000  0.32951094  0.05999381  1
  Ni  Ni11  1  0.75000000  0.67048906  0.94000619  1
