# generated using pymatgen
data_Y3Al2
_symmetry_space_group_name_H-M   'P 1'
_cell_length_a   7.64016307
_cell_length_b   8.25350404
_cell_length_c   8.25350404
_cell_angle_alpha   90.00000000
_cell_angle_beta   90.00000000
_cell_angle_gamma   90.00000000
_symmetry_Int_Tables_number   1
_chemical_formula_structural   Y3Al2
_chemical_formula_sum   'Y12 Al8'
_cell_volume   520.45042147
_cell_formula_units_Z   4
loop_
 _symmetry_equiv_pos_site_id
 _symmetry_equiv_pos_as_xyz
  1  'x, y, z'
loop_
 _atom_site_type_symbol
 _atom_site_label
 _atom_site_symmetry_multiplicity
 _atom_site_fract_x
 _atom_site_fract_y
 _atom_site_fract_z
 _atom_site_occupancy
  Al  Al0  1  0.19753755  0.11883304  0.11883304  1
  Al  Al1  1  0.69753755  0.38116696  0.61883304  1
  Al  Al2  1  0.69753755  0.61883304  0.38116696  1
  Al  Al3  1  0.19753755  0.88116696  0.88116696  1
  Al  Al4  1  0.30246245  0.61883304  0.38116696  1
  Al  Al5  1  0.30246245  0.38116696  0.61883304  1
  Al  Al6  1  0.80246245  0.11883304  0.11883304  1
  Al  Al7  1  0.80246245  0.88116696  0.88116696  1
  Y  Y8  1  0.25000000  0.00000000  0.50000000  1
  Y  Y9  1  0.75000000  0.00000000  0.50000000  1
  Y  Y10  1  0.25000000  0.50000000  0.00000000  1
  Y  Y11  1  0.75000000  0.50000000  0.00000000  1
  Y  Y12  1  0.00000000  0.34782304  0.34782304  1
  Y  Y13  1  0.50000000  0.15217696  0.84782304  1
  Y  Y14  1  0.50000000  0.84782304  0.15217696  1
  Y  Y15  1  0.00000000  0.65217696  0.65217696  1
  Y  Y16  1  0.00000000  0.20059474  0.79940526  1
  Y  Y17  1  0.50000000  0.70059474  0.70059474  1
  Y  Y18  1  0.50000000  0.29940526  0.29940526  1
  Y  Y19  1  0.00000000  0.79940526  0.20059474  1
