# generated using pymatgen
data_BaNiO3
_symmetry_space_group_name_H-M   'P 1'
_cell_length_a   5.72260255
_cell_length_b   5.72260254
_cell_length_c   4.82718438
_cell_angle_alpha   90.00000000
_cell_angle_beta   90.00000000
_cell_angle_gamma   119.99999998
_symmetry_Int_Tables_number   1
_chemical_formula_structural   BaNiO3
_chemical_formula_sum   'Ba2 Ni2 O6'
_cell_volume   136.90259710
_cell_formula_units_Z   2
loop_
 _symmetry_equiv_pos_site_id
 _symmetry_equiv_pos_as_xyz
  1  'x, y, z'
loop_
 _atom_site_type_symbol
 _atom_site_label
 _atom_site_symmetry_multiplicity
 _atom_site_fract_x
 _atom_site_fract_y
 _atom_site_fract_z
 _atom_site_occupancy
  O  O0  1  0.85365071  0.14634869  0.23809598  1
  O  O1  1  0.70730251  0.85365161  0.73809547  1
  O  O2  1  0.14634869  0.29269739  0.73809547  1
  O  O3  1  0.85365010  0.70730089  0.23809598  1
  O  O4  1  0.14634910  0.85365161  0.73809547  1
  O  O5  1  0.29269730  0.14634869  0.23809598  1
  Ni  Ni6  1  0.00000000  0.00000000  0.48842084  1
  Ni  Ni7  1  0.00000000  0.00000000  0.98842238  1
  Ba  Ba8  1  0.66666671  0.33333411  0.74979249  1
  Ba  Ba9  1  0.33333310  0.66666619  0.24979095  1
