# generated using pymatgen
data_YAl2Co
_symmetry_space_group_name_H-M   'P 1'
_cell_length_a   4.03113699
_cell_length_b   5.43160530
_cell_length_c   7.02108246
_cell_angle_alpha   90.00000000
_cell_angle_beta   90.00000000
_cell_angle_gamma   111.78233448
_symmetry_Int_Tables_number   1
_chemical_formula_structural   YAl2Co
_chemical_formula_sum   'Y2 Al4 Co2'
_cell_volume   142.75411827
_cell_formula_units_Z   2
loop_
 _symmetry_equiv_pos_site_id
 _symmetry_equiv_pos_as_xyz
  1  'x, y, z'
loop_
 _atom_site_type_symbol
 _atom_site_label
 _atom_site_symmetry_multiplicity
 _atom_site_fract_x
 _atom_site_fract_y
 _atom_site_fract_z
 _atom_site_occupancy
  Al  Al0  1  0.33821609  0.67643217  0.94357873  1
  Al  Al1  1  0.66178391  0.32356783  0.05642127  1
  Al  Al2  1  0.66178391  0.32356783  0.44357873  1
  Al  Al3  1  0.33821609  0.67643217  0.55642127  1
  Co  Co4  1  0.78326325  0.56652650  0.75000000  1
  Co  Co5  1  0.21673675  0.43347350  0.25000000  1
  Y  Y6  1  0.05926229  0.11852458  0.75000000  1
  Y  Y7  1  0.94073771  0.88147542  0.25000000  1
