# generated using pymatgen
data_ScNiP
_symmetry_space_group_name_H-M   'P 1'
_cell_length_a   3.73735359
_cell_length_b   6.33682446
_cell_length_c   7.09441098
_cell_angle_alpha   90.00000000
_cell_angle_beta   90.00000000
_cell_angle_gamma   90.00000000
_symmetry_Int_Tables_number   1
_chemical_formula_structural   ScNiP
_chemical_formula_sum   'Sc4 Ni4 P4'
_cell_volume   168.01660638
_cell_formula_units_Z   4
loop_
 _symmetry_equiv_pos_site_id
 _symmetry_equiv_pos_as_xyz
  1  'x, y, z'
loop_
 _atom_site_type_symbol
 _atom_site_label
 _atom_site_symmetry_multiplicity
 _atom_site_fract_x
 _atom_site_fract_y
 _atom_site_fract_z
 _atom_site_occupancy
  P  P0  1  0.25000000  0.76617797  0.11888601  1
  P  P1  1  0.25000000  0.26617797  0.38111399  1
  P  P2  1  0.75000000  0.23382203  0.88111399  1
  P  P3  1  0.75000000  0.73382203  0.61888601  1
  Sc  Sc4  1  0.75000000  0.47878763  0.18433406  1
  Sc  Sc5  1  0.25000000  0.02121237  0.68433406  1
  Sc  Sc6  1  0.75000000  0.97878763  0.31566594  1
  Sc  Sc7  1  0.25000000  0.52121237  0.81566594  1
  Ni  Ni8  1  0.25000000  0.64019488  0.43915077  1
  Ni  Ni9  1  0.25000000  0.14019488  0.06084923  1
  Ni  Ni10  1  0.75000000  0.85980512  0.93915077  1
  Ni  Ni11  1  0.75000000  0.35980512  0.56084923  1
