# generated using pymatgen
data_Rb2ZrF6
_symmetry_space_group_name_H-M   'P 1'
_cell_length_a   6.27034423
_cell_length_b   6.27034422
_cell_length_c   4.92423395
_cell_angle_alpha   90.00000000
_cell_angle_beta   90.00000000
_cell_angle_gamma   119.99999998
_symmetry_Int_Tables_number   1
_chemical_formula_structural   Rb2ZrF6
_chemical_formula_sum   'Rb2 Zr1 F6'
_cell_volume   167.66873058
_cell_formula_units_Z   1
loop_
 _symmetry_equiv_pos_site_id
 _symmetry_equiv_pos_as_xyz
  1  'x, y, z'
loop_
 _atom_site_type_symbol
 _atom_site_label
 _atom_site_symmetry_multiplicity
 _atom_site_fract_x
 _atom_site_fract_y
 _atom_site_fract_z
 _atom_site_occupancy
  F  F0  1  0.84247840  0.15752160  0.77205022  1
  F  F1  1  0.84247840  0.68495680  0.77205022  1
  F  F2  1  0.31504320  0.15752160  0.77205022  1
  F  F3  1  0.15752160  0.84247840  0.22794978  1
  F  F4  1  0.15752160  0.31504320  0.22794978  1
  F  F5  1  0.68495680  0.84247840  0.22794978  1
  Rb  Rb6  1  0.33333333  0.66666667  0.68836763  1
  Rb  Rb7  1  0.66666667  0.33333333  0.31163237  1
  Zr  Zr8  1  0.00000000  0.00000000  0.00000000  1
