# generated using pymatgen
data_ZnWO4
_symmetry_space_group_name_H-M   'P 1'
_cell_length_a   4.74320902
_cell_length_b   5.04309087
_cell_length_c   5.80555396
_cell_angle_alpha   90.00000000
_cell_angle_beta   90.00000000
_cell_angle_gamma   88.67599763
_symmetry_Int_Tables_number   1
_chemical_formula_structural   ZnWO4
_chemical_formula_sum   'Zn2 W2 O8'
_cell_volume   138.83429475
_cell_formula_units_Z   2
loop_
 _symmetry_equiv_pos_site_id
 _symmetry_equiv_pos_as_xyz
  1  'x, y, z'
loop_
 _atom_site_type_symbol
 _atom_site_label
 _atom_site_symmetry_multiplicity
 _atom_site_fract_x
 _atom_site_fract_y
 _atom_site_fract_z
 _atom_site_occupancy
  O  O0  1  0.78398212  0.93383504  0.10724934  1
  O  O1  1  0.21601788  0.56616496  0.10724934  1
  O  O2  1  0.21601788  0.06616496  0.89275066  1
  O  O3  1  0.78398212  0.43383504  0.89275066  1
  O  O4  1  0.74230047  0.40185941  0.37390365  1
  O  O5  1  0.25769953  0.09814059  0.37390365  1
  O  O6  1  0.25769953  0.59814059  0.62609635  1
  O  O7  1  0.74230047  0.90185941  0.62609635  1
  Zn  Zn8  1  0.50000000  0.25000000  0.67191973  1
  Zn  Zn9  1  0.50000000  0.75000000  0.32808027  1
  W  W10  1  0.00000000  0.25000000  0.17467898  1
  W  W11  1  0.00000000  0.75000000  0.82532102  1
