# generated using pymatgen
data_Al6Ru
_symmetry_space_group_name_H-M   'P 1'
_cell_length_a   4.98271966
_cell_length_b   4.98271966
_cell_length_c   9.03906173
_cell_angle_alpha   90.00000000
_cell_angle_beta   90.00000000
_cell_angle_gamma   97.66529375
_symmetry_Int_Tables_number   1
_chemical_formula_structural   Al6Ru
_chemical_formula_sum   'Al12 Ru2'
_cell_volume   222.41190939
_cell_formula_units_Z   2
loop_
 _symmetry_equiv_pos_site_id
 _symmetry_equiv_pos_as_xyz
  1  'x, y, z'
loop_
 _atom_site_type_symbol
 _atom_site_label
 _atom_site_symmetry_multiplicity
 _atom_site_fract_x
 _atom_site_fract_y
 _atom_site_fract_z
 _atom_site_occupancy
  Al  Al0  1  0.31918040  0.68081960  0.00000000  1
  Al  Al1  1  0.68081960  0.31918040  0.50000000  1
  Al  Al2  1  0.68081960  0.31918040  0.00000000  1
  Al  Al3  1  0.31918040  0.68081960  0.50000000  1
  Al  Al4  1  0.14054543  0.14054543  0.09956343  1
  Al  Al5  1  0.85945457  0.85945457  0.59956343  1
  Al  Al6  1  0.14054543  0.14054543  0.40043657  1
  Al  Al7  1  0.85945457  0.85945457  0.90043657  1
  Al  Al8  1  0.61815029  0.97812654  0.25000000  1
  Al  Al9  1  0.38184971  0.02187346  0.75000000  1
  Al  Al10  1  0.97812654  0.61815029  0.25000000  1
  Al  Al11  1  0.02187346  0.38184971  0.75000000  1
  Ru  Ru12  1  0.46356808  0.46356808  0.25000000  1
  Ru  Ru13  1  0.53643192  0.53643192  0.75000000  1
