# generated using pymatgen
data_Ba(BeN)2
_symmetry_space_group_name_H-M   'P 1'
_cell_length_a   5.67536252
_cell_length_b   5.67536252
_cell_length_c   5.85114180
_cell_angle_alpha   119.01110061
_cell_angle_beta   119.01110059
_cell_angle_gamma   90.00000001
_symmetry_Int_Tables_number   1
_chemical_formula_structural   Ba(BeN)2
_chemical_formula_sum   'Ba2 Be4 N4'
_cell_volume   137.15068480
_cell_formula_units_Z   2
loop_
 _symmetry_equiv_pos_site_id
 _symmetry_equiv_pos_as_xyz
  1  'x, y, z'
loop_
 _atom_site_type_symbol
 _atom_site_label
 _atom_site_symmetry_multiplicity
 _atom_site_fract_x
 _atom_site_fract_y
 _atom_site_fract_z
 _atom_site_occupancy
  Be  Be0  1  0.62876711  0.12876711  0.00000000  1
  Be  Be1  1  0.87123289  0.62876711  0.00000000  1
  Be  Be2  1  0.12876711  0.37123289  0.00000000  1
  Be  Be3  1  0.37123289  0.87123289  0.00000000  1
  N  N4  1  0.33397218  0.16602782  0.00000000  1
  N  N5  1  0.16602782  0.66602782  0.00000000  1
  N  N6  1  0.66602782  0.83397218  0.00000000  1
  N  N7  1  0.83397218  0.33397218  0.00000000  1
  Ba  Ba8  1  0.75000000  0.75000000  0.50000000  1
  Ba  Ba9  1  0.25000000  0.25000000  0.50000000  1
