# generated using pymatgen
data_YSiRh
_symmetry_space_group_name_H-M   'P 1'
_cell_length_a   4.24875509
_cell_length_b   6.91684477
_cell_length_c   7.45889784
_cell_angle_alpha   90.00000000
_cell_angle_beta   90.00000000
_cell_angle_gamma   90.00000000
_symmetry_Int_Tables_number   1
_chemical_formula_structural   YSiRh
_chemical_formula_sum   'Y4 Si4 Rh4'
_cell_volume   219.20193624
_cell_formula_units_Z   4
loop_
 _symmetry_equiv_pos_site_id
 _symmetry_equiv_pos_as_xyz
  1  'x, y, z'
loop_
 _atom_site_type_symbol
 _atom_site_label
 _atom_site_symmetry_multiplicity
 _atom_site_fract_x
 _atom_site_fract_y
 _atom_site_fract_z
 _atom_site_occupancy
  Si  Si0  1  0.25000000  0.29658283  0.89674085  1
  Si  Si1  1  0.25000000  0.79658283  0.60325915  1
  Si  Si2  1  0.75000000  0.70341717  0.10325915  1
  Si  Si3  1  0.75000000  0.20341717  0.39674085  1
  Y  Y4  1  0.75000000  0.49882400  0.68978424  1
  Y  Y5  1  0.25000000  0.00117600  0.18978424  1
  Y  Y6  1  0.75000000  0.99882400  0.81021576  1
  Y  Y7  1  0.25000000  0.50117600  0.31021576  1
  Rh  Rh8  1  0.25000000  0.65399870  0.93043172  1
  Rh  Rh9  1  0.25000000  0.15399870  0.56956828  1
  Rh  Rh10  1  0.75000000  0.84600130  0.43043172  1
  Rh  Rh11  1  0.75000000  0.34600130  0.06956828  1
