# generated using pymatgen
data_Be2Mo
_symmetry_space_group_name_H-M   'P 1'
_cell_length_a   4.45061963
_cell_length_b   4.45061963
_cell_length_c   7.30156731
_cell_angle_alpha   90.00000000
_cell_angle_beta   90.00000000
_cell_angle_gamma   119.99861435
_symmetry_Int_Tables_number   1
_chemical_formula_structural   Be2Mo
_chemical_formula_sum   'Be8 Mo4'
_cell_volume   125.25461779
_cell_formula_units_Z   4
loop_
 _symmetry_equiv_pos_site_id
 _symmetry_equiv_pos_as_xyz
  1  'x, y, z'
loop_
 _atom_site_type_symbol
 _atom_site_label
 _atom_site_symmetry_multiplicity
 _atom_site_fract_x
 _atom_site_fract_y
 _atom_site_fract_z
 _atom_site_occupancy
  Be  Be0  1  -0.00000000  0.00000000  0.50000000  1
  Be  Be1  1  -0.00000000  0.00000000  0.00000000  1
  Be  Be2  1  0.16939947  0.33878760  0.75000000  1
  Be  Be3  1  0.16938435  0.83061565  0.75000000  1
  Be  Be4  1  0.66121240  0.83060053  0.75000000  1
  Be  Be5  1  0.83060053  0.66121240  0.25000000  1
  Be  Be6  1  0.83061565  0.16938435  0.25000000  1
  Be  Be7  1  0.33878760  0.16939947  0.25000000  1
  Mo  Mo8  1  0.66664902  0.33335098  0.56335783  1
  Mo  Mo9  1  0.33335098  0.66664902  0.43664217  1
  Mo  Mo10  1  0.33335098  0.66664902  0.06335783  1
  Mo  Mo11  1  0.66664902  0.33335098  0.93664217  1
