# generated using pymatgen
data_Cu2SnTe3
_symmetry_space_group_name_H-M   'P 1'
_cell_length_a   4.40991030
_cell_length_b   6.11366797
_cell_length_c   7.55422378
_cell_angle_alpha   113.86933996
_cell_angle_beta   106.97076696
_cell_angle_gamma   90.00000003
_symmetry_Int_Tables_number   1
_chemical_formula_structural   Cu2SnTe3
_chemical_formula_sum   'Cu2 Sn1 Te3'
_cell_volume   176.50576007
_cell_formula_units_Z   1
loop_
 _symmetry_equiv_pos_site_id
 _symmetry_equiv_pos_as_xyz
  1  'x, y, z'
loop_
 _atom_site_type_symbol
 _atom_site_label
 _atom_site_symmetry_multiplicity
 _atom_site_fract_x
 _atom_site_fract_y
 _atom_site_fract_z
 _atom_site_occupancy
  Cu  Cu0  1  0.82969252  0.56914261  0.65938503  1
  Cu  Cu1  1  0.17030748  0.90975758  0.34061497  1
  Sn  Sn2  1  0.50000000  0.26615254  0.00000000  1
  Te  Te3  1  0.68029001  0.69903989  0.36058002  1
  Te  Te4  1  0.31970999  0.33845987  0.63941998  1
  Te  Te5  1  0.00000000  0.95944752  0.00000000  1
