# generated using pymatgen
data_TiAu4
_symmetry_space_group_name_H-M   'P 1'
_cell_length_a   4.01436424
_cell_length_b   5.08100305
_cell_length_c   5.08100305
_cell_angle_alpha   81.02207549
_cell_angle_beta   66.73174389
_cell_angle_gamma   66.73174389
_symmetry_Int_Tables_number   1
_chemical_formula_structural   TiAu4
_chemical_formula_sum   'Ti1 Au4'
_cell_volume   87.46421297
_cell_formula_units_Z   1
loop_
 _symmetry_equiv_pos_site_id
 _symmetry_equiv_pos_as_xyz
  1  'x, y, z'
loop_
 _atom_site_type_symbol
 _atom_site_label
 _atom_site_symmetry_multiplicity
 _atom_site_fract_x
 _atom_site_fract_y
 _atom_site_fract_z
 _atom_site_occupancy
  Ti  Ti0  1  0.00000000  0.00000000  0.00000000  1
  Au  Au1  1  0.60494257  0.60198034  0.18813452  1
  Au  Au2  1  0.39505743  0.39801966  0.81186548  1
  Au  Au3  1  0.79307709  0.81186548  0.60198034  1
  Au  Au4  1  0.20692291  0.18813452  0.39801966  1
