# generated using pymatgen
data_Al12Re
_symmetry_space_group_name_H-M   'P 1'
_cell_length_a   6.52699412
_cell_length_b   6.52699412
_cell_length_c   6.52699412
_cell_angle_alpha   109.47122066
_cell_angle_beta   109.47122066
_cell_angle_gamma   109.47122065
_symmetry_Int_Tables_number   1
_chemical_formula_structural   Al12Re
_chemical_formula_sum   'Al12 Re1'
_cell_volume   214.05125246
_cell_formula_units_Z   1
loop_
 _symmetry_equiv_pos_site_id
 _symmetry_equiv_pos_as_xyz
  1  'x, y, z'
loop_
 _atom_site_type_symbol
 _atom_site_label
 _atom_site_symmetry_multiplicity
 _atom_site_fract_x
 _atom_site_fract_y
 _atom_site_fract_z
 _atom_site_occupancy
  Al  Al0  1  0.49622878  0.30825549  0.18797330  1
  Al  Al1  1  0.30825549  0.81202670  0.12028219  1
  Al  Al2  1  0.18797330  0.87971781  0.69174451  1
  Al  Al3  1  0.69174451  0.81202670  0.50377122  1
  Al  Al4  1  0.81202670  0.12028219  0.30825549  1
  Al  Al5  1  0.69174451  0.18797330  0.87971781  1
  Al  Al6  1  0.81202670  0.50377122  0.69174451  1
  Al  Al7  1  0.18797330  0.49622878  0.30825549  1
  Al  Al8  1  0.30825549  0.18797330  0.49622878  1
  Al  Al9  1  0.12028219  0.30825549  0.81202670  1
  Al  Al10  1  0.87971781  0.69174451  0.18797330  1
  Al  Al11  1  0.50377122  0.69174451  0.81202670  1
  Re  Re12  1  0.00000000  0.00000000  0.00000000  1
