# generated using pymatgen
data_SrC2
_symmetry_space_group_name_H-M   'P 1'
_cell_length_a   4.17901123
_cell_length_b   4.17901123
_cell_length_c   7.89897166
_cell_angle_alpha   74.51461394
_cell_angle_beta   74.51461392
_cell_angle_gamma   64.01644555
_symmetry_Int_Tables_number   1
_chemical_formula_structural   SrC2
_chemical_formula_sum   'Sr2 C4'
_cell_volume   117.69770486
_cell_formula_units_Z   2
loop_
 _symmetry_equiv_pos_site_id
 _symmetry_equiv_pos_as_xyz
  1  'x, y, z'
loop_
 _atom_site_type_symbol
 _atom_site_label
 _atom_site_symmetry_multiplicity
 _atom_site_fract_x
 _atom_site_fract_y
 _atom_site_fract_z
 _atom_site_occupancy
  C  C0  1  0.12354342  0.42211431  0.44056275  1
  C  C1  1  0.57788569  0.87645658  0.05943725  1
  C  C2  1  0.42211431  0.12354342  0.94056275  1
  C  C3  1  0.87645658  0.57788569  0.55943725  1
  Sr  Sr4  1  0.82039980  0.17960020  0.25000000  1
  Sr  Sr5  1  0.17960020  0.82039980  0.75000000  1
