# generated using pymatgen
data_V3S4
_symmetry_space_group_name_H-M   'P 1'
_cell_length_a   3.24743052
_cell_length_b   5.85975427
_cell_length_c   11.41397810
_cell_angle_alpha   87.83055177
_cell_angle_beta   90.00000038
_cell_angle_gamma   90.00000350
_symmetry_Int_Tables_number   1
_chemical_formula_structural   V3S4
_chemical_formula_sum   'V6 S8'
_cell_volume   217.04256426
_cell_formula_units_Z   2
loop_
 _symmetry_equiv_pos_site_id
 _symmetry_equiv_pos_as_xyz
  1  'x, y, z'
loop_
 _atom_site_type_symbol
 _atom_site_label
 _atom_site_symmetry_multiplicity
 _atom_site_fract_x
 _atom_site_fract_y
 _atom_site_fract_z
 _atom_site_occupancy
  V  V0  1  0.00000000  0.99946462  0.99977741  1
  V  V1  1  0.50000000  0.49927914  0.49985892  1
  V  V2  1  0.50000000  0.44004255  0.24257741  1
  V  V3  1  0.00000000  0.93936722  0.74256655  1
  V  V4  1  1.00000000  0.06018523  0.25757804  1
  V  V5  1  0.50000000  0.56059431  0.75763226  1
  S  S6  1  0.50000000  0.83954667  0.14014635  1
  S  S7  1  1.00000000  0.33958563  0.64024861  1
  S  S8  1  1.00000000  0.66106571  0.36005164  1
  S  S9  1  0.50000000  0.16074049  0.85971680  1
  S  S10  1  0.50000000  0.16124237  0.38962997  1
  S  S11  1  1.00000000  0.66075350  0.88987661  1
  S  S12  1  1.00000000  0.33903888  0.11024421  1
  S  S13  1  0.50000000  0.83909368  0.61009521  1
