# generated using pymatgen
data_ZnAu3
_symmetry_space_group_name_H-M   'P 1'
_cell_length_a   5.79965441
_cell_length_b   5.71125828
_cell_length_c   8.85011538
_cell_angle_alpha   90.00000000
_cell_angle_beta   109.12679769
_cell_angle_gamma   90.00000000
_symmetry_Int_Tables_number   1
_chemical_formula_structural   ZnAu3
_chemical_formula_sum   'Zn4 Au12'
_cell_volume   276.96238348
_cell_formula_units_Z   4
loop_
 _symmetry_equiv_pos_site_id
 _symmetry_equiv_pos_as_xyz
  1  'x, y, z'
loop_
 _atom_site_type_symbol
 _atom_site_label
 _atom_site_symmetry_multiplicity
 _atom_site_fract_x
 _atom_site_fract_y
 _atom_site_fract_z
 _atom_site_occupancy
  Zn  Zn0  1  0.63616934  0.00000000  0.27233868  1
  Zn  Zn1  1  0.36383066  0.00000000  0.72766132  1
  Zn  Zn2  1  0.13616934  0.50000000  0.27233868  1
  Zn  Zn3  1  0.86383066  0.50000000  0.72766132  1
  Au  Au4  1  0.31732127  0.18147834  1.00000000  1
  Au  Au5  1  0.81732127  0.31852166  1.00000000  1
  Au  Au6  1  0.18267873  0.68147834  0.00000000  1
  Au  Au7  1  0.38080215  0.50000000  0.76160431  1
  Au  Au8  1  0.50211039  0.75000000  0.50000000  1
  Au  Au9  1  0.88080215  0.00000000  0.76160431  1
  Au  Au10  1  0.49788961  0.25000000  0.50000000  1
  Au  Au11  1  0.68267873  0.81852166  0.00000000  1
  Au  Au12  1  0.61919785  0.50000000  0.23839569  1
  Au  Au13  1  0.11919785  0.00000000  0.23839569  1
  Au  Au14  1  0.99788961  0.25000000  0.50000000  1
  Au  Au15  1  0.00211039  0.75000000  0.50000000  1
