# generated using pymatgen
data_Zr2Si
_symmetry_space_group_name_H-M   'P 1'
_cell_length_a   5.33142408
_cell_length_b   5.39128361
_cell_length_c   5.39128360
_cell_angle_alpha   75.84893538
_cell_angle_beta   60.36661028
_cell_angle_gamma   60.36661023
_symmetry_Int_Tables_number   1
_chemical_formula_structural   Zr2Si
_chemical_formula_sum   'Zr4 Si2'
_cell_volume   117.07763675
_cell_formula_units_Z   2
loop_
 _symmetry_equiv_pos_site_id
 _symmetry_equiv_pos_as_xyz
  1  'x, y, z'
loop_
 _atom_site_type_symbol
 _atom_site_label
 _atom_site_symmetry_multiplicity
 _atom_site_fract_x
 _atom_site_fract_y
 _atom_site_fract_z
 _atom_site_occupancy
  Si  Si0  1  0.25000000  0.00000000  0.00000000  1
  Si  Si1  1  0.75000000  0.00000000  0.00000000  1
  Zr  Zr2  1  0.15812616  0.50000000  0.18374767  1
  Zr  Zr3  1  0.34187384  0.81625233  0.50000000  1
  Zr  Zr4  1  0.65812616  0.18374767  0.50000000  1
  Zr  Zr5  1  0.84187384  0.50000000  0.81625233  1
