# generated using pymatgen
data_BaNiO3
_symmetry_space_group_name_H-M   'P 1'
_cell_length_a   5.71772370
_cell_length_b   5.71772370
_cell_length_c   4.82396122
_cell_angle_alpha   90.00000000
_cell_angle_beta   90.00000000
_cell_angle_gamma   119.99999998
_symmetry_Int_Tables_number   1
_chemical_formula_structural   BaNiO3
_chemical_formula_sum   'Ba2 Ni2 O6'
_cell_volume   136.57800660
_cell_formula_units_Z   2
loop_
 _symmetry_equiv_pos_site_id
 _symmetry_equiv_pos_as_xyz
  1  'x, y, z'
loop_
 _atom_site_type_symbol
 _atom_site_label
 _atom_site_symmetry_multiplicity
 _atom_site_fract_x
 _atom_site_fract_y
 _atom_site_fract_z
 _atom_site_occupancy
  O  O0  1  0.85353101  0.70706203  0.75000000  1
  O  O1  1  0.14646899  0.85353101  0.25000000  1
  O  O2  1  0.70706203  0.85353101  0.25000000  1
  O  O3  1  0.29293797  0.14646899  0.75000000  1
  O  O4  1  0.14646899  0.29293797  0.25000000  1
  O  O5  1  0.85353101  0.14646899  0.75000000  1
  Ni  Ni6  1  0.00000000  0.00000000  0.50000000  1
  Ni  Ni7  1  0.00000000  0.00000000  0.00000000  1
  Ba  Ba8  1  0.66666667  0.33333333  0.25000000  1
  Ba  Ba9  1  0.33333333  0.66666667  0.75000000  1
