# generated using pymatgen
data_NbSiRh
_symmetry_space_group_name_H-M   'P 1'
_cell_length_a   3.77747066
_cell_length_b   6.45341974
_cell_length_c   7.36793911
_cell_angle_alpha   90.00000000
_cell_angle_beta   90.00000000
_cell_angle_gamma   90.00000000
_symmetry_Int_Tables_number   1
_chemical_formula_structural   NbSiRh
_chemical_formula_sum   'Nb4 Si4 Rh4'
_cell_volume   179.61269989
_cell_formula_units_Z   4
loop_
 _symmetry_equiv_pos_site_id
 _symmetry_equiv_pos_as_xyz
  1  'x, y, z'
loop_
 _atom_site_type_symbol
 _atom_site_label
 _atom_site_symmetry_multiplicity
 _atom_site_fract_x
 _atom_site_fract_y
 _atom_site_fract_z
 _atom_site_occupancy
  Si  Si0  1  0.25000000  0.26873481  0.87541130  1
  Si  Si1  1  0.25000000  0.76873481  0.62458870  1
  Si  Si2  1  0.75000000  0.73126519  0.12458870  1
  Si  Si3  1  0.75000000  0.23126519  0.37541130  1
  Nb  Nb4  1  0.75000000  0.47450505  0.67342629  1
  Nb  Nb5  1  0.25000000  0.02549495  0.17342629  1
  Nb  Nb6  1  0.75000000  0.97450505  0.82657371  1
  Nb  Nb7  1  0.25000000  0.52549495  0.32657371  1
  Rh  Rh8  1  0.25000000  0.64525820  0.93745303  1
  Rh  Rh9  1  0.25000000  0.14525820  0.56254697  1
  Rh  Rh10  1  0.75000000  0.85474180  0.43745303  1
  Rh  Rh11  1  0.75000000  0.35474180  0.06254697  1
