# generated using pymatgen
data_FeP
_symmetry_space_group_name_H-M   'P 1'
_cell_length_a   3.05259005
_cell_length_b   5.14800165
_cell_length_c   5.75913829
_cell_angle_alpha   90.00000000
_cell_angle_beta   90.00000000
_cell_angle_gamma   90.00000000
_symmetry_Int_Tables_number   1
_chemical_formula_structural   FeP
_chemical_formula_sum   'Fe4 P4'
_cell_volume   90.50335287
_cell_formula_units_Z   4
loop_
 _symmetry_equiv_pos_site_id
 _symmetry_equiv_pos_as_xyz
  1  'x, y, z'
loop_
 _atom_site_type_symbol
 _atom_site_label
 _atom_site_symmetry_multiplicity
 _atom_site_fract_x
 _atom_site_fract_y
 _atom_site_fract_z
 _atom_site_occupancy
  P  P0  1  0.27299298  0.69084700  0.93282277  1
  P  P1  1  0.77299298  0.30915300  0.06717723  1
  P  P2  1  0.77299298  0.80915300  0.43282277  1
  P  P3  1  0.27299298  0.19084700  0.56717723  1
  Fe  Fe4  1  0.27300702  0.50113096  0.29841893  1
  Fe  Fe5  1  0.77300702  0.49886904  0.70158107  1
  Fe  Fe6  1  0.77300702  0.99886904  0.79841893  1
  Fe  Fe7  1  0.27300702  0.00113096  0.20158107  1
