# generated using pymatgen
data_VAuS2
_symmetry_space_group_name_H-M   'P 1'
_cell_length_a   3.22547472
_cell_length_b   3.22547471
_cell_length_c   15.18863671
_cell_angle_alpha   90.00000000
_cell_angle_beta   90.00000000
_cell_angle_gamma   120.00000006
_symmetry_Int_Tables_number   1
_chemical_formula_structural   VAuS2
_chemical_formula_sum   'V2 Au2 S4'
_cell_volume   136.84745025
_cell_formula_units_Z   2
loop_
 _symmetry_equiv_pos_site_id
 _symmetry_equiv_pos_as_xyz
  1  'x, y, z'
loop_
 _atom_site_type_symbol
 _atom_site_label
 _atom_site_symmetry_multiplicity
 _atom_site_fract_x
 _atom_site_fract_y
 _atom_site_fract_z
 _atom_site_occupancy
  S  S0  1  0.00000000  0.00000000  0.34419606  1
  S  S1  1  0.00000000  0.00000000  0.84419606  1
  S  S2  1  0.00000000  0.00000000  0.15580394  1
  S  S3  1  0.00000000  0.00000000  0.65580394  1
  V  V4  1  0.33333333  0.66666667  0.25000000  1
  V  V5  1  0.66666667  0.33333333  0.75000000  1
  Au  Au6  1  0.00000000  0.00000000  0.00000000  1
  Au  Au7  1  0.00000000  0.00000000  0.50000000  1
