# generated using pymatgen
data_Ta5Si3
_symmetry_space_group_name_H-M   'P 1'
_cell_length_a   6.56125265
_cell_length_b   6.56125265
_cell_length_c   7.55802329
_cell_angle_alpha   115.72541738
_cell_angle_beta   115.72541738
_cell_angle_gamma   90.00000000
_symmetry_Int_Tables_number   1
_chemical_formula_structural   Ta5Si3
_chemical_formula_sum   'Ta10 Si6'
_cell_volume   256.85651052
_cell_formula_units_Z   2
loop_
 _symmetry_equiv_pos_site_id
 _symmetry_equiv_pos_as_xyz
  1  'x, y, z'
loop_
 _atom_site_type_symbol
 _atom_site_label
 _atom_site_symmetry_multiplicity
 _atom_site_fract_x
 _atom_site_fract_y
 _atom_site_fract_z
 _atom_site_occupancy
  Ta  Ta0  1  0.31500224  0.81500224  0.30019719  1
  Ta  Ta1  1  0.98519495  0.48519495  0.30019719  1
  Ta  Ta2  1  0.48519495  0.31500224  0.30019719  1
  Ta  Ta3  1  0.81500224  0.98519495  0.30019719  1
  Ta  Ta4  1  0.68499776  0.18499776  0.69980281  1
  Ta  Ta5  1  0.01480505  0.51480505  0.69980281  1
  Ta  Ta6  1  0.51480505  0.68499776  0.69980281  1
  Ta  Ta7  1  0.18499776  0.01480505  0.69980281  1
  Ta  Ta8  1  0.50000000  0.50000000  0.00000000  1
  Ta  Ta9  1  0.00000000  -0.00000000  0.00000000  1
  Si  Si10  1  0.75000000  0.75000000  0.50000000  1
  Si  Si11  1  0.25000000  0.25000000  0.50000000  1
  Si  Si12  1  0.36995519  0.86995519  0.00000000  1
  Si  Si13  1  0.63004481  0.13004481  0.00000000  1
  Si  Si14  1  0.13004481  0.36995519  0.00000000  1
  Si  Si15  1  0.86995519  0.63004481  0.00000000  1
