# generated using pymatgen
data_Nb2Al
_symmetry_space_group_name_H-M   'P 1'
_cell_length_a   5.20198073
_cell_length_b   10.00236647
_cell_length_c   10.00236647
_cell_angle_alpha   90.00000000
_cell_angle_beta   90.00000000
_cell_angle_gamma   90.00000000
_symmetry_Int_Tables_number   1
_chemical_formula_structural   Nb2Al
_chemical_formula_sum   'Nb20 Al10'
_cell_volume   520.44430876
_cell_formula_units_Z   10
loop_
 _symmetry_equiv_pos_site_id
 _symmetry_equiv_pos_as_xyz
  1  'x, y, z'
loop_
 _atom_site_type_symbol
 _atom_site_label
 _atom_site_symmetry_multiplicity
 _atom_site_fract_x
 _atom_site_fract_y
 _atom_site_fract_z
 _atom_site_occupancy
  Al  Al0  1  0.00000000  0.00000000  0.00000000  1
  Al  Al1  1  0.50000000  0.50000000  0.50000000  1
  Al  Al2  1  0.00000000  0.93319452  0.26155557  1
  Al  Al3  1  0.50000000  0.23844443  0.43319452  1
  Al  Al4  1  0.50000000  0.76155557  0.56680548  1
  Al  Al5  1  0.00000000  0.06680548  0.73844443  1
  Al  Al6  1  0.50000000  0.43319452  0.23844443  1
  Al  Al7  1  0.50000000  0.56680548  0.76155557  1
  Al  Al8  1  0.00000000  0.26155557  0.93319452  1
  Al  Al9  1  0.00000000  0.73844443  0.06680548  1
  Nb  Nb10  1  0.00000000  0.39654268  0.39654268  1
  Nb  Nb11  1  0.50000000  0.10345732  0.89654268  1
  Nb  Nb12  1  0.50000000  0.89654268  0.10345732  1
  Nb  Nb13  1  0.00000000  0.60345732  0.60345732  1
  Nb  Nb14  1  0.00000000  0.46490563  0.12788306  1
  Nb  Nb15  1  0.50000000  0.37211694  0.96490563  1
  Nb  Nb16  1  0.50000000  0.62788306  0.03509437  1
  Nb  Nb17  1  0.00000000  0.53509437  0.87211694  1
  Nb  Nb18  1  0.50000000  0.96490563  0.37211694  1
  Nb  Nb19  1  0.50000000  0.03509437  0.62788306  1
  Nb  Nb20  1  0.00000000  0.12788306  0.46490563  1
  Nb  Nb21  1  0.00000000  0.87211694  0.53509437  1
  Nb  Nb22  1  0.25225008  0.18176949  0.18176949  1
  Nb  Nb23  1  0.75225008  0.31823051  0.68176949  1
  Nb  Nb24  1  0.75225008  0.68176949  0.31823051  1
  Nb  Nb25  1  0.25225008  0.81823051  0.81823051  1
  Nb  Nb26  1  0.24774992  0.68176949  0.31823051  1
  Nb  Nb27  1  0.24774992  0.31823051  0.68176949  1
  Nb  Nb28  1  0.74774992  0.18176949  0.18176949  1
  Nb  Nb29  1  0.74774992  0.81823051  0.81823051  1
