# generated using pymatgen
data_Si3Mo5
_symmetry_space_group_name_H-M   'P 1'
_cell_length_a   4.93561880
_cell_length_b   7.28393143
_cell_length_c   7.28393142
_cell_angle_alpha   83.40867819
_cell_angle_beta   70.19610721
_cell_angle_gamma   70.19610723
_symmetry_Int_Tables_number   1
_chemical_formula_structural   Si3Mo5
_chemical_formula_sum   'Si6 Mo10'
_cell_volume   231.80416899
_cell_formula_units_Z   2
loop_
 _symmetry_equiv_pos_site_id
 _symmetry_equiv_pos_as_xyz
  1  'x, y, z'
loop_
 _atom_site_type_symbol
 _atom_site_label
 _atom_site_symmetry_multiplicity
 _atom_site_fract_x
 _atom_site_fract_y
 _atom_site_fract_z
 _atom_site_occupancy
  Si  Si0  1  0.83264116  0.50000000  0.83471767  1
  Si  Si1  1  0.66735884  0.16528233  0.50000000  1
  Si  Si2  1  0.33264116  0.83471767  0.50000000  1
  Si  Si3  1  0.16735884  0.50000000  0.16528233  1
  Si  Si4  1  0.75000000  0.00000000  0.00000000  1
  Si  Si5  1  0.25000000  0.00000000  0.00000000  1
  Mo  Mo6  1  0.27606235  0.14739308  0.30048222  1
  Mo  Mo7  1  0.72393765  0.85260692  0.69951778  1
  Mo  Mo8  1  0.42345543  0.30048222  0.85260692  1
  Mo  Mo9  1  0.57654457  0.69951778  0.14739308  1
  Mo  Mo10  1  0.92345543  0.85260692  0.30048222  1
  Mo  Mo11  1  0.22393765  0.69951778  0.85260692  1
  Mo  Mo12  1  0.77606235  0.30048222  0.14739308  1
  Mo  Mo13  1  0.07654457  0.14739308  0.69951778  1
  Mo  Mo14  1  0.75000000  0.50000000  0.50000000  1
  Mo  Mo15  1  0.25000000  0.50000000  0.50000000  1
