# generated using pymatgen
data_Mg(Co3P2)2
_symmetry_space_group_name_H-M   'P 1'
_cell_length_a   6.57130672
_cell_length_b   6.57130672
_cell_length_c   3.35878157
_cell_angle_alpha   90.00000000
_cell_angle_beta   90.00000000
_cell_angle_gamma   119.99999998
_symmetry_Int_Tables_number   1
_chemical_formula_structural   Mg(Co3P2)2
_chemical_formula_sum   'Mg1 Co6 P4'
_cell_volume   125.60758648
_cell_formula_units_Z   1
loop_
 _symmetry_equiv_pos_site_id
 _symmetry_equiv_pos_as_xyz
  1  'x, y, z'
loop_
 _atom_site_type_symbol
 _atom_site_label
 _atom_site_symmetry_multiplicity
 _atom_site_fract_x
 _atom_site_fract_y
 _atom_site_fract_z
 _atom_site_occupancy
  Mg  Mg0  1  0.00000000  0.00000000  0.00000000  1
  P  P1  1  0.81277429  0.18722571  0.50000000  1
  P  P2  1  0.37445141  0.18722571  0.50000000  1
  P  P3  1  0.33333333  0.66666667  0.00000000  1
  P  P4  1  0.81277429  0.62554859  0.50000000  1
  Co  Co5  1  0.19872524  0.80127476  0.50000000  1
  Co  Co6  1  0.19872524  0.39745048  0.50000000  1
  Co  Co7  1  0.53494245  0.06988489  0.00000000  1
  Co  Co8  1  0.93011511  0.46505755  0.00000000  1
  Co  Co9  1  0.53494245  0.46505755  0.00000000  1
  Co  Co10  1  0.60254952  0.80127476  0.50000000  1
