# generated using pymatgen
data_ScSiPt2
_symmetry_space_group_name_H-M   'P 1'
_cell_length_a   3.71999803
_cell_length_b   5.29372656
_cell_length_c   7.02743290
_cell_angle_alpha   90.00000000
_cell_angle_beta   90.00000000
_cell_angle_gamma   110.57046640
_symmetry_Int_Tables_number   1
_chemical_formula_structural   ScSiPt2
_chemical_formula_sum   'Sc2 Si2 Pt4'
_cell_volume   129.56523053
_cell_formula_units_Z   2
loop_
 _symmetry_equiv_pos_site_id
 _symmetry_equiv_pos_as_xyz
  1  'x, y, z'
loop_
 _atom_site_type_symbol
 _atom_site_label
 _atom_site_symmetry_multiplicity
 _atom_site_fract_x
 _atom_site_fract_y
 _atom_site_fract_z
 _atom_site_occupancy
  Si  Si0  1  0.23275684  0.46551368  0.25000000  1
  Si  Si1  1  0.76724316  0.53448632  0.75000000  1
  Sc  Sc2  1  0.95151720  0.90303440  0.25000000  1
  Sc  Sc3  1  0.04848280  0.09696560  0.75000000  1
  Pt  Pt4  1  0.36166742  0.72333484  0.54803130  1
  Pt  Pt5  1  0.63833258  0.27666516  0.45196870  1
  Pt  Pt6  1  0.63833258  0.27666516  0.04803130  1
  Pt  Pt7  1  0.36166742  0.72333484  0.95196870  1
