# generated using pymatgen
data_MgZn2
_symmetry_space_group_name_H-M   'P 1'
_cell_length_a   5.25128402
_cell_length_b   5.25128403
_cell_length_c   8.44523166
_cell_angle_alpha   90.00000000
_cell_angle_beta   90.00000000
_cell_angle_gamma   119.99999997
_symmetry_Int_Tables_number   1
_chemical_formula_structural   MgZn2
_chemical_formula_sum   'Mg4 Zn8'
_cell_volume   201.68482175
_cell_formula_units_Z   4
loop_
 _symmetry_equiv_pos_site_id
 _symmetry_equiv_pos_as_xyz
  1  'x, y, z'
loop_
 _atom_site_type_symbol
 _atom_site_label
 _atom_site_symmetry_multiplicity
 _atom_site_fract_x
 _atom_site_fract_y
 _atom_site_fract_z
 _atom_site_occupancy
  Mg  Mg0  1  0.33333333  0.66666667  0.06241808  1
  Mg  Mg1  1  0.66666667  0.33333333  0.56241808  1
  Mg  Mg2  1  0.66666667  0.33333333  0.93758192  1
  Mg  Mg3  1  0.33333333  0.66666667  0.43758192  1
  Zn  Zn4  1  0.00000000  0.00000000  0.00000000  1
  Zn  Zn5  1  0.00000000  0.00000000  0.50000000  1
  Zn  Zn6  1  0.17036084  0.34072167  0.75000000  1
  Zn  Zn7  1  0.82963916  0.17036084  0.25000000  1
  Zn  Zn8  1  0.34072167  0.17036084  0.25000000  1
  Zn  Zn9  1  0.65927833  0.82963916  0.75000000  1
  Zn  Zn10  1  0.17036084  0.82963916  0.75000000  1
  Zn  Zn11  1  0.82963916  0.65927833  0.25000000  1
