# generated using pymatgen
data_Sn2S3
_symmetry_space_group_name_H-M   'P 1'
_cell_length_a   3.80154931
_cell_length_b   9.27176787
_cell_length_c   14.43049431
_cell_angle_alpha   90.00000000
_cell_angle_beta   90.00000000
_cell_angle_gamma   90.00000000
_symmetry_Int_Tables_number   1
_chemical_formula_structural   Sn2S3
_chemical_formula_sum   'Sn8 S12'
_cell_volume   508.63282705
_cell_formula_units_Z   4
loop_
 _symmetry_equiv_pos_site_id
 _symmetry_equiv_pos_as_xyz
  1  'x, y, z'
loop_
 _atom_site_type_symbol
 _atom_site_label
 _atom_site_symmetry_multiplicity
 _atom_site_fract_x
 _atom_site_fract_y
 _atom_site_fract_z
 _atom_site_occupancy
  S  S0  1  0.75000000  0.98212917  0.89490959  1
  S  S1  1  0.25000000  0.01787083  0.10509041  1
  S  S2  1  0.75000000  0.48212917  0.60509041  1
  S  S3  1  0.25000000  0.51787083  0.39490959  1
  S  S4  1  0.75000000  0.33147752  0.00498691  1
  S  S5  1  0.25000000  0.66852248  0.99501309  1
  S  S6  1  0.75000000  0.83147752  0.49501309  1
  S  S7  1  0.25000000  0.16852248  0.50498691  1
  S  S8  1  0.75000000  0.71969781  0.20756771  1
  S  S9  1  0.25000000  0.28030219  0.79243229  1
  S  S10  1  0.75000000  0.21969781  0.29243229  1
  S  S11  1  0.25000000  0.78030219  0.70756771  1
  Sn  Sn12  1  0.75000000  0.84026428  0.04990449  1
  Sn  Sn13  1  0.25000000  0.15973572  0.95009551  1
  Sn  Sn14  1  0.75000000  0.34026428  0.45009551  1
  Sn  Sn15  1  0.25000000  0.65973572  0.54990449  1
  Sn  Sn16  1  0.75000000  0.46851585  0.83705993  1
  Sn  Sn17  1  0.25000000  0.53148415  0.16294007  1
  Sn  Sn18  1  0.75000000  0.96851585  0.66294007  1
  Sn  Sn19  1  0.25000000  0.03148415  0.33705993  1
