# generated using pymatgen
data_Li2MnO3
_symmetry_space_group_name_H-M   'P 1'
_cell_length_a   5.00492930
_cell_length_b   5.00492955
_cell_length_c   9.74593624
_cell_angle_alpha   94.79266939
_cell_angle_beta   94.79266948
_cell_angle_gamma   119.92592953
_symmetry_Int_Tables_number   1
_chemical_formula_structural   Li2MnO3
_chemical_formula_sum   'Li8 Mn4 O12'
_cell_volume   208.61144582
_cell_formula_units_Z   4
loop_
 _symmetry_equiv_pos_site_id
 _symmetry_equiv_pos_as_xyz
  1  'x, y, z'
loop_
 _atom_site_type_symbol
 _atom_site_label
 _atom_site_symmetry_multiplicity
 _atom_site_fract_x
 _atom_site_fract_y
 _atom_site_fract_z
 _atom_site_occupancy
  Li  Li0  1  0.83985996  0.66367254  0.50050711  1
  Li  Li1  1  0.25015780  0.74984220  0.75000000  1
  Li  Li2  1  0.16014004  0.33632746  0.49949289  1
  Li  Li3  1  0.33632746  0.16014004  0.99949289  1
  Li  Li4  1  0.66367254  0.83985996  0.00050711  1
  Li  Li5  1  0.74984220  0.25015780  0.25000000  1
  Li  Li6  1  0.00000000  0.50000000  0.00000000  1
  Li  Li7  1  0.50000000  0.00000000  0.50000000  1
  Mn  Mn8  1  0.58293569  0.41706431  0.75000000  1
  Mn  Mn9  1  0.08305876  0.91694124  0.25000000  1
  Mn  Mn10  1  0.91694124  0.08305876  0.75000000  1
  Mn  Mn11  1  0.41706431  0.58293569  0.25000000  1
  O  O12  1  0.07045665  0.21321565  0.13808092  1
  O  O13  1  0.42942879  0.28666973  0.36186346  1
  O  O14  1  0.64483088  0.14485263  0.86368254  1
  O  O15  1  0.14485263  0.64483088  0.36368254  1
  O  O16  1  0.85514737  0.35516912  0.63631746  1
  O  O17  1  0.92954335  0.78678435  0.86191908  1
  O  O18  1  0.28666973  0.42942879  0.86186346  1
  O  O19  1  0.71333027  0.57057121  0.13813654  1
  O  O20  1  0.57057121  0.71333027  0.63813654  1
  O  O21  1  0.21321565  0.07045665  0.63808092  1
  O  O22  1  0.78678435  0.92954335  0.36191908  1
  O  O23  1  0.35516912  0.85514737  0.13631746  1
