# generated using pymatgen
data_Mg2Si
_symmetry_space_group_name_H-M   'P 1'
_cell_length_a   6.36341687
_cell_length_b   6.36342144
_cell_length_c   6.36342200
_cell_angle_alpha   89.99993229
_cell_angle_beta   90.00005060
_cell_angle_gamma   90.00015307
_symmetry_Int_Tables_number   1
_chemical_formula_structural   Mg2Si
_chemical_formula_sum   'Mg8 Si4'
_cell_volume   257.67470466
_cell_formula_units_Z   4
loop_
 _symmetry_equiv_pos_site_id
 _symmetry_equiv_pos_as_xyz
  1  'x, y, z'
loop_
 _atom_site_type_symbol
 _atom_site_label
 _atom_site_symmetry_multiplicity
 _atom_site_fract_x
 _atom_site_fract_y
 _atom_site_fract_z
 _atom_site_occupancy
  Mg  Mg0  1  0.25000700  0.24999997  0.24997452  1
  Mg  Mg1  1  0.75001299  0.74999964  0.74996001  1
  Mg  Mg2  1  0.75001013  0.75000036  0.24995240  1
  Mg  Mg3  1  0.25000821  0.25000250  0.74996138  1
  Mg  Mg4  1  0.75000572  0.24999927  0.74995858  1
  Mg  Mg5  1  0.25001035  0.74999884  0.24995702  1
  Mg  Mg6  1  0.25001134  0.75000258  0.74995504  1
  Mg  Mg7  1  0.75001101  0.24999743  0.24995815  1
  Si  Si8  1  0.00001107  0.00000158  0.99996305  1
  Si  Si9  1  0.50000511  0.49999644  0.99996312  1
  Si  Si10  1  0.50001198  0.99999733  0.49996216  1
  Si  Si11  1  0.00000507  0.50000307  0.49996358  1
