# generated using pymatgen
data_TiSiRu
_symmetry_space_group_name_H-M   'P 1'
_cell_length_a   6.49894894
_cell_length_b   7.08576043
_cell_length_c   7.38707752
_cell_angle_alpha   118.65962146
_cell_angle_beta   116.09662443
_cell_angle_gamma   89.99999836
_symmetry_Int_Tables_number   1
_chemical_formula_structural   TiSiRu
_chemical_formula_sum   'Ti6 Si6 Ru6'
_cell_volume   258.28189372
_cell_formula_units_Z   6
loop_
 _symmetry_equiv_pos_site_id
 _symmetry_equiv_pos_as_xyz
  1  'x, y, z'
loop_
 _atom_site_type_symbol
 _atom_site_label
 _atom_site_symmetry_multiplicity
 _atom_site_fract_x
 _atom_site_fract_y
 _atom_site_fract_z
 _atom_site_occupancy
  Ti  Ti0  1  0.91226124  0.24590849  0.99181597  1
  Ti  Ti1  1  0.49317024  0.97330679  0.44661459  1
  Ti  Ti2  1  0.04655666  0.02669321  0.55338541  1
  Ti  Ti3  1  0.49116643  0.44545471  0.39091042  1
  Ti  Ti4  1  0.92044527  0.75409151  0.00818403  1
  Ti  Ti5  1  0.10025701  0.55454529  0.60908958  1
  Si  Si6  1  0.53819594  0.78114078  0.06228155  1
  Si  Si7  1  0.16235909  0.17449267  0.33520016  1
  Si  Si8  1  0.16235909  0.66070749  0.33520016  1
  Si  Si9  1  0.82715892  0.33929251  0.66479984  1
  Si  Si10  1  0.47591439  0.21885922  0.93771845  1
  Si  Si11  1  0.82715892  0.82550733  0.66479984  1
  Ru  Ru12  1  0.24550919  0.50000000  0.00000000  1
  Ru  Ru13  1  0.24550919  0.00000000  0.00000000  1
  Ru  Ru14  1  0.49707806  0.83842743  0.74706641  1
  Ru  Ru15  1  0.75001165  0.59136002  0.25293359  1
  Ru  Ru16  1  0.49707806  0.40863998  0.74706641  1
  Ru  Ru17  1  0.75001165  0.16157257  0.25293359  1
