# generated using pymatgen
data_SiIr3
_symmetry_space_group_name_H-M   'P 1'
_cell_length_a   5.28322351
_cell_length_b   5.28322351
_cell_length_c   5.49261446
_cell_angle_alpha   118.74673860
_cell_angle_beta   118.74673860
_cell_angle_gamma   89.99999997
_symmetry_Int_Tables_number   1
_chemical_formula_structural   SiIr3
_chemical_formula_sum   'Si2 Ir6'
_cell_volume   112.38908762
_cell_formula_units_Z   2
loop_
 _symmetry_equiv_pos_site_id
 _symmetry_equiv_pos_as_xyz
  1  'x, y, z'
loop_
 _atom_site_type_symbol
 _atom_site_label
 _atom_site_symmetry_multiplicity
 _atom_site_fract_x
 _atom_site_fract_y
 _atom_site_fract_z
 _atom_site_occupancy
  Si  Si0  1  0.25000000  0.75000000  0.50000000  1
  Si  Si1  1  0.75000000  0.25000000  0.50000000  1
  Ir  Ir2  1  0.25000000  0.25000000  0.50000000  1
  Ir  Ir3  1  0.75000000  0.75000000  0.50000000  1
  Ir  Ir4  1  0.18484895  0.68484895  0.00000000  1
  Ir  Ir5  1  0.31515105  0.18484895  0.00000000  1
  Ir  Ir6  1  0.68484895  0.81515105  0.00000000  1
  Ir  Ir7  1  0.81515105  0.31515105  0.00000000  1
