# generated using pymatgen
data_VTe2
_symmetry_space_group_name_H-M   'P 1'
_cell_length_a   3.57558352
_cell_length_b   7.62561953
_cell_length_c   9.36610577
_cell_angle_alpha   111.78635725
_cell_angle_beta   90.00000000
_cell_angle_gamma   103.55893589
_symmetry_Int_Tables_number   1
_chemical_formula_structural   VTe2
_chemical_formula_sum   'V3 Te6'
_cell_volume   229.45349356
_cell_formula_units_Z   3
loop_
 _symmetry_equiv_pos_site_id
 _symmetry_equiv_pos_as_xyz
  1  'x, y, z'
loop_
 _atom_site_type_symbol
 _atom_site_label
 _atom_site_symmetry_multiplicity
 _atom_site_fract_x
 _atom_site_fract_y
 _atom_site_fract_z
 _atom_site_occupancy
  V  V0  1  0.00000000  0.00000000  0.00000000  1
  V  V1  1  0.36152710  0.72305421  0.70914206  1
  V  V2  1  0.63847290  0.27694579  0.29085794  1
  Te  Te3  1  0.35673792  0.71347585  0.97996454  1
  Te  Te4  1  0.64326208  0.28652415  0.02003546  1
  Te  Te5  1  0.70963054  0.41926107  0.61461584  1
  Te  Te6  1  0.29036946  0.58073893  0.38538416  1
  Te  Te7  1  0.00962517  0.01925034  0.30106481  1
  Te  Te8  1  0.99037483  0.98074966  0.69893519  1
