# generated using pymatgen
data_ZrSi
_symmetry_space_group_name_H-M   'P 1'
_cell_length_a   3.77937874
_cell_length_b   3.78827192
_cell_length_c   5.31937763
_cell_angle_alpha   110.85979094
_cell_angle_beta   90.00000000
_cell_angle_gamma   90.00000000
_symmetry_Int_Tables_number   1
_chemical_formula_structural   ZrSi
_chemical_formula_sum   'Zr2 Si2'
_cell_volume   71.16731599
_cell_formula_units_Z   2
loop_
 _symmetry_equiv_pos_site_id
 _symmetry_equiv_pos_as_xyz
  1  'x, y, z'
loop_
 _atom_site_type_symbol
 _atom_site_label
 _atom_site_symmetry_multiplicity
 _atom_site_fract_x
 _atom_site_fract_y
 _atom_site_fract_z
 _atom_site_occupancy
  Zr  Zr0  1  0.25000000  0.35503520  0.71007041  1
  Zr  Zr1  1  0.75000000  0.64496480  0.28992959  1
  Si  Si2  1  0.25000000  0.07889139  0.15778179  1
  Si  Si3  1  0.75000000  0.92110861  0.84221821  1
