# generated using pymatgen
data_Al3Pt5
_symmetry_space_group_name_H-M   'P 1'
_cell_length_a   4.00528463
_cell_length_b   5.46790763
_cell_length_c   10.89304434
_cell_angle_alpha   90.00000000
_cell_angle_beta   90.00000000
_cell_angle_gamma   90.00000000
_symmetry_Int_Tables_number   1
_chemical_formula_structural   Al3Pt5
_chemical_formula_sum   'Al6 Pt10'
_cell_volume   238.56340502
_cell_formula_units_Z   2
loop_
 _symmetry_equiv_pos_site_id
 _symmetry_equiv_pos_as_xyz
  1  'x, y, z'
loop_
 _atom_site_type_symbol
 _atom_site_label
 _atom_site_symmetry_multiplicity
 _atom_site_fract_x
 _atom_site_fract_y
 _atom_site_fract_z
 _atom_site_occupancy
  Al  Al0  1  0.50000000  0.18142544  0.63991755  1
  Al  Al1  1  0.50000000  0.81857456  0.36008245  1
  Al  Al2  1  0.50000000  0.68142544  0.86008245  1
  Al  Al3  1  0.50000000  0.31857456  0.13991755  1
  Al  Al4  1  0.00000000  0.50000000  0.50000000  1
  Al  Al5  1  0.00000000  0.00000000  0.00000000  1
  Pt  Pt6  1  0.50000000  0.29292203  0.39275278  1
  Pt  Pt7  1  0.50000000  0.70707797  0.60724722  1
  Pt  Pt8  1  0.50000000  0.79292203  0.10724722  1
  Pt  Pt9  1  0.50000000  0.20707797  0.89275278  1
  Pt  Pt10  1  0.00000000  0.42860914  0.73091804  1
  Pt  Pt11  1  0.00000000  0.57139086  0.26908196  1
  Pt  Pt12  1  0.00000000  0.92860914  0.76908196  1
  Pt  Pt13  1  0.00000000  0.07139086  0.23091804  1
  Pt  Pt14  1  0.00000000  0.50000000  0.00000000  1
  Pt  Pt15  1  0.00000000  0.00000000  0.50000000  1
