# generated using pymatgen
data_Cr2O3
_symmetry_space_group_name_H-M   'P 1'
_cell_length_a   5.09424473
_cell_length_b   5.09424473
_cell_length_c   5.45448005
_cell_angle_alpha   62.16168652
_cell_angle_beta   62.16168652
_cell_angle_gamma   60.00000614
_symmetry_Int_Tables_number   1
_chemical_formula_structural   Cr2O3
_chemical_formula_sum   'Cr4 O6'
_cell_volume   103.23829955
_cell_formula_units_Z   2
loop_
 _symmetry_equiv_pos_site_id
 _symmetry_equiv_pos_as_xyz
  1  'x, y, z'
loop_
 _atom_site_type_symbol
 _atom_site_label
 _atom_site_symmetry_multiplicity
 _atom_site_fract_x
 _atom_site_fract_y
 _atom_site_fract_z
 _atom_site_occupancy
  Cr  Cr0  1  0.65026911  0.65026911  0.04919267  1
  Cr  Cr1  1  0.15026911  0.15026911  0.54919267  1
  Cr  Cr2  1  0.34973089  0.34973089  0.95080733  1
  Cr  Cr3  1  0.84973089  0.84973089  0.45080733  1
  O  O4  1  0.44935774  0.05064226  0.75000000  1
  O  O5  1  0.05064226  0.75000000  0.75000000  1
  O  O6  1  0.75000000  0.44935774  0.75000000  1
  O  O7  1  0.94935774  0.25000000  0.25000000  1
  O  O8  1  0.25000000  0.55064226  0.25000000  1
  O  O9  1  0.55064226  0.94935774  0.25000000  1
