# generated using pymatgen
data_TaMn2
_symmetry_space_group_name_H-M   'P 1'
_cell_length_a   4.80771592
_cell_length_b   4.80771592
_cell_length_c   7.90994546
_cell_angle_alpha   90.00000000
_cell_angle_beta   90.00000000
_cell_angle_gamma   120.00000001
_symmetry_Int_Tables_number   1
_chemical_formula_structural   TaMn2
_chemical_formula_sum   'Ta4 Mn8'
_cell_volume   158.33674642
_cell_formula_units_Z   4
loop_
 _symmetry_equiv_pos_site_id
 _symmetry_equiv_pos_as_xyz
  1  'x, y, z'
loop_
 _atom_site_type_symbol
 _atom_site_label
 _atom_site_symmetry_multiplicity
 _atom_site_fract_x
 _atom_site_fract_y
 _atom_site_fract_z
 _atom_site_occupancy
  Mn  Mn0  1  0.00000000  0.00000000  0.00000000  1
  Mn  Mn1  1  0.00000000  0.00000000  0.50000000  1
  Mn  Mn2  1  0.82814457  0.65628914  0.25000000  1
  Mn  Mn3  1  0.17185543  0.82814457  0.75000000  1
  Mn  Mn4  1  0.65628914  0.82814457  0.75000000  1
  Mn  Mn5  1  0.34371086  0.17185543  0.25000000  1
  Mn  Mn6  1  0.82814457  0.17185543  0.25000000  1
  Mn  Mn7  1  0.17185543  0.34371086  0.75000000  1
  Ta  Ta8  1  0.33333333  0.66666667  0.06339417  1
  Ta  Ta9  1  0.66666667  0.33333333  0.56339417  1
  Ta  Ta10  1  0.66666667  0.33333333  0.93660583  1
  Ta  Ta11  1  0.33333333  0.66666667  0.43660583  1
