# generated using pymatgen
data_AsPdS
_symmetry_space_group_name_H-M   'P 1'
_cell_length_a   6.03348564
_cell_length_b   6.03348564
_cell_length_c   6.03348564
_cell_angle_alpha   90.00000000
_cell_angle_beta   90.00000000
_cell_angle_gamma   90.00000000
_symmetry_Int_Tables_number   1
_chemical_formula_structural   AsPdS
_chemical_formula_sum   'As4 Pd4 S4'
_cell_volume   219.63666985
_cell_formula_units_Z   4
loop_
 _symmetry_equiv_pos_site_id
 _symmetry_equiv_pos_as_xyz
  1  'x, y, z'
loop_
 _atom_site_type_symbol
 _atom_site_label
 _atom_site_symmetry_multiplicity
 _atom_site_fract_x
 _atom_site_fract_y
 _atom_site_fract_z
 _atom_site_occupancy
  S  S0  1  0.60685690  0.89314310  0.10685690  1
  S  S1  1  0.89314310  0.10685690  0.60685690  1
  S  S2  1  0.10685690  0.60685690  0.89314310  1
  S  S3  1  0.39314310  0.39314310  0.39314310  1
  As  As4  1  0.61263947  0.61263947  0.61263947  1
  As  As5  1  0.88736053  0.38736053  0.11263947  1
  As  As6  1  0.11263947  0.88736053  0.38736053  1
  As  As7  1  0.38736053  0.11263947  0.88736053  1
  Pd  Pd8  1  0.00039422  0.49960578  0.50039422  1
  Pd  Pd9  1  0.49960578  0.50039422  0.00039422  1
  Pd  Pd10  1  0.50039422  0.00039422  0.49960578  1
  Pd  Pd11  1  0.99960578  0.99960578  0.99960578  1
