# generated using pymatgen
data_Co2Si
_symmetry_space_group_name_H-M   'P 1'
_cell_length_a   3.71223374
_cell_length_b   4.88516367
_cell_length_c   7.04589538
_cell_angle_alpha   90.00000000
_cell_angle_beta   90.00000000
_cell_angle_gamma   90.00000000
_symmetry_Int_Tables_number   1
_chemical_formula_structural   Co2Si
_chemical_formula_sum   'Co8 Si4'
_cell_volume   127.77639253
_cell_formula_units_Z   4
loop_
 _symmetry_equiv_pos_site_id
 _symmetry_equiv_pos_as_xyz
  1  'x, y, z'
loop_
 _atom_site_type_symbol
 _atom_site_label
 _atom_site_symmetry_multiplicity
 _atom_site_fract_x
 _atom_site_fract_y
 _atom_site_fract_z
 _atom_site_occupancy
  Si  Si0  1  0.25000000  0.20285360  0.10639985  1
  Si  Si1  1  0.75000000  0.79714640  0.89360015  1
  Si  Si2  1  0.25000000  0.70285360  0.39360015  1
  Si  Si3  1  0.75000000  0.29714640  0.60639985  1
  Co  Co4  1  0.75000000  0.82640130  0.56426445  1
  Co  Co5  1  0.25000000  0.17359870  0.43573555  1
  Co  Co6  1  0.75000000  0.32640130  0.93573555  1
  Co  Co7  1  0.25000000  0.67359870  0.06426445  1
  Co  Co8  1  0.25000000  0.53708596  0.71765481  1
  Co  Co9  1  0.75000000  0.46291404  0.28234519  1
  Co  Co10  1  0.25000000  0.03708596  0.78234519  1
  Co  Co11  1  0.75000000  0.96291404  0.21765481  1
