# generated using pymatgen
data_V3Te4
_symmetry_space_group_name_H-M   'P 1'
_cell_length_a   3.96052851
_cell_length_b   6.87439263
_cell_length_c   7.29080072
_cell_angle_alpha   116.42084423
_cell_angle_beta   105.76017430
_cell_angle_gamma   90.00000004
_symmetry_Int_Tables_number   1
_chemical_formula_structural   V3Te4
_chemical_formula_sum   'V3 Te4'
_cell_volume   169.39440683
_cell_formula_units_Z   1
loop_
 _symmetry_equiv_pos_site_id
 _symmetry_equiv_pos_as_xyz
  1  'x, y, z'
loop_
 _atom_site_type_symbol
 _atom_site_label
 _atom_site_symmetry_multiplicity
 _atom_site_fract_x
 _atom_site_fract_y
 _atom_site_fract_z
 _atom_site_occupancy
  V  V0  1  0.25578550  0.29361185  0.51157101  1
  V  V1  1  0.74421450  0.70638815  0.48842899  1
  V  V2  1  0.00000000  0.00000000  0.00000000  1
  Te  Te3  1  0.63669439  0.97630747  0.27338879  1
  Te  Te4  1  0.36330561  0.02369253  0.72661121  1
  Te  Te5  1  0.11116707  0.45254011  0.22233413  1
  Te  Te6  1  0.88883293  0.54745989  0.77766587  1
