# generated using pymatgen
data_HfSiRh
_symmetry_space_group_name_H-M   'P 1'
_cell_length_a   3.93053634
_cell_length_b   6.51455303
_cell_length_c   7.45587380
_cell_angle_alpha   90.00000000
_cell_angle_beta   90.00000000
_cell_angle_gamma   90.00000000
_symmetry_Int_Tables_number   1
_chemical_formula_structural   HfSiRh
_chemical_formula_sum   'Hf4 Si4 Rh4'
_cell_volume   190.91277399
_cell_formula_units_Z   4
loop_
 _symmetry_equiv_pos_site_id
 _symmetry_equiv_pos_as_xyz
  1  'x, y, z'
loop_
 _atom_site_type_symbol
 _atom_site_label
 _atom_site_symmetry_multiplicity
 _atom_site_fract_x
 _atom_site_fract_y
 _atom_site_fract_z
 _atom_site_occupancy
  Si  Si0  1  0.25000000  0.77359641  0.11777306  1
  Si  Si1  1  0.75000000  0.22640359  0.88222694  1
  Si  Si2  1  0.25000000  0.27359641  0.38222694  1
  Si  Si3  1  0.75000000  0.72640359  0.61777306  1
  Rh  Rh4  1  0.75000000  0.84919208  0.93497701  1
  Rh  Rh5  1  0.25000000  0.15080792  0.06502299  1
  Rh  Rh6  1  0.75000000  0.34919208  0.56502299  1
  Rh  Rh7  1  0.25000000  0.65080792  0.43497701  1
  Hf  Hf8  1  0.25000000  0.52023204  0.81580341  1
  Hf  Hf9  1  0.75000000  0.47976796  0.18419659  1
  Hf  Hf10  1  0.25000000  0.02023204  0.68419659  1
  Hf  Hf11  1  0.75000000  0.97976796  0.31580341  1
