# generated using pymatgen
data_NiO
_symmetry_space_group_name_H-M   'P 1'
_cell_length_a   4.22520656
_cell_length_b   4.22520667
_cell_length_c   4.22673922
_cell_angle_alpha   90.01329124
_cell_angle_beta   90.01329116
_cell_angle_gamma   89.99264284
_symmetry_Int_Tables_number   1
_chemical_formula_structural   NiO
_chemical_formula_sum   'Ni4 O4'
_cell_volume   75.45731188
_cell_formula_units_Z   4
loop_
 _symmetry_equiv_pos_site_id
 _symmetry_equiv_pos_as_xyz
  1  'x, y, z'
loop_
 _atom_site_type_symbol
 _atom_site_label
 _atom_site_symmetry_multiplicity
 _atom_site_fract_x
 _atom_site_fract_y
 _atom_site_fract_z
 _atom_site_occupancy
  Ni  Ni0  1  0.50000000  0.00000000  0.50000000  1
  Ni  Ni1  1  0.00000000  0.50000000  0.50000000  1
  Ni  Ni2  1  0.00000000  0.00000000  0.00000000  1
  Ni  Ni3  1  0.50000000  0.50000000  0.00000000  1
  O  O4  1  0.00000000  0.50000000  0.00000000  1
  O  O5  1  0.50000000  0.00000000  0.00000000  1
  O  O6  1  0.50000000  0.50000000  0.50000000  1
  O  O7  1  0.00000000  0.00000000  0.50000000  1
