# generated using pymatgen
data_AlAu4
_symmetry_space_group_name_H-M   'P 1'
_cell_length_a   7.05464985
_cell_length_b   7.05464985
_cell_length_c   7.05464985
_cell_angle_alpha   90.00000000
_cell_angle_beta   90.00000000
_cell_angle_gamma   90.00000000
_symmetry_Int_Tables_number   1
_chemical_formula_structural   AlAu4
_chemical_formula_sum   'Al4 Au16'
_cell_volume   351.09640990
_cell_formula_units_Z   4
loop_
 _symmetry_equiv_pos_site_id
 _symmetry_equiv_pos_as_xyz
  1  'x, y, z'
loop_
 _atom_site_type_symbol
 _atom_site_label
 _atom_site_symmetry_multiplicity
 _atom_site_fract_x
 _atom_site_fract_y
 _atom_site_fract_z
 _atom_site_occupancy
  Al  Al0  1  0.06340655  0.06340655  0.06340655  1
  Al  Al1  1  0.43659345  0.93659345  0.56340655  1
  Al  Al2  1  0.56340655  0.43659345  0.93659345  1
  Al  Al3  1  0.93659345  0.56340655  0.43659345  1
  Au  Au4  1  0.68255575  0.68255575  0.68255575  1
  Au  Au5  1  0.81744425  0.31744425  0.18255575  1
  Au  Au6  1  0.18255575  0.81744425  0.31744425  1
  Au  Au7  1  0.31744425  0.18255575  0.81744425  1
  Au  Au8  1  0.78510945  0.94922105  0.38618871  1
  Au  Au9  1  0.38618871  0.78510945  0.94922105  1
  Au  Au10  1  0.94922105  0.38618871  0.78510945  1
  Au  Au11  1  0.55077895  0.61381129  0.28510945  1
  Au  Au12  1  0.88618871  0.71489055  0.05077895  1
  Au  Au13  1  0.05077895  0.88618871  0.71489055  1
  Au  Au14  1  0.11381129  0.21489055  0.44922105  1
  Au  Au15  1  0.61381129  0.28510945  0.55077895  1
  Au  Au16  1  0.44922105  0.11381129  0.21489055  1
  Au  Au17  1  0.28510945  0.55077895  0.61381129  1
  Au  Au18  1  0.21489055  0.44922105  0.11381129  1
  Au  Au19  1  0.71489055  0.05077895  0.88618871  1
