# generated using pymatgen
data_NbPt3
_symmetry_space_group_name_H-M   'P 1'
_cell_length_a   4.93748219
_cell_length_b   5.62018923
_cell_length_c   9.41488356
_cell_angle_alpha   90.00000000
_cell_angle_beta   100.58624353
_cell_angle_gamma   90.00000000
_symmetry_Int_Tables_number   1
_chemical_formula_structural   NbPt3
_chemical_formula_sum   'Nb4 Pt12'
_cell_volume   256.81234033
_cell_formula_units_Z   4
loop_
 _symmetry_equiv_pos_site_id
 _symmetry_equiv_pos_as_xyz
  1  'x, y, z'
loop_
 _atom_site_type_symbol
 _atom_site_label
 _atom_site_symmetry_multiplicity
 _atom_site_fract_x
 _atom_site_fract_y
 _atom_site_fract_z
 _atom_site_occupancy
  Nb  Nb0  1  0.62073488  0.25000000  0.37773968  1
  Nb  Nb1  1  0.37926512  0.75000000  0.62226032  1
  Nb  Nb2  1  0.78679976  0.25000000  0.87257695  1
  Nb  Nb3  1  0.21320024  0.75000000  0.12742305  1
  Pt  Pt4  1  0.20784807  0.25000000  0.12816095  1
  Pt  Pt5  1  0.79215193  0.75000000  0.87183905  1
  Pt  Pt6  1  0.39094960  0.25000000  0.62437078  1
  Pt  Pt7  1  0.60905040  0.75000000  0.37562922  1
  Pt  Pt8  1  0.11955675  0.00093303  0.37409296  1
  Pt  Pt9  1  0.88044325  0.50093303  0.62590704  1
  Pt  Pt10  1  0.88044325  0.99906697  0.62590704  1
  Pt  Pt11  1  0.11955675  0.49906697  0.37409296  1
  Pt  Pt12  1  0.70851480  0.00144777  0.12280304  1
  Pt  Pt13  1  0.29148520  0.50144777  0.87719696  1
  Pt  Pt14  1  0.29148520  0.99855223  0.87719696  1
  Pt  Pt15  1  0.70851480  0.49855223  0.12280304  1
