# generated using pymatgen
data_Y2MgSe4
_symmetry_space_group_name_H-M   'P 1'
_cell_length_a   8.27594710
_cell_length_b   8.27594710
_cell_length_c   8.27594710
_cell_angle_alpha   59.99999999
_cell_angle_beta   60.00000000
_cell_angle_gamma   60.00000001
_symmetry_Int_Tables_number   1
_chemical_formula_structural   Y2MgSe4
_chemical_formula_sum   'Y4 Mg2 Se8'
_cell_volume   400.80960472
_cell_formula_units_Z   2
loop_
 _symmetry_equiv_pos_site_id
 _symmetry_equiv_pos_as_xyz
  1  'x, y, z'
loop_
 _atom_site_type_symbol
 _atom_site_label
 _atom_site_symmetry_multiplicity
 _atom_site_fract_x
 _atom_site_fract_y
 _atom_site_fract_z
 _atom_site_occupancy
  Mg  Mg0  1  0.87500000  0.87500000  0.87500000  1
  Mg  Mg1  1  0.12500000  0.12500000  0.12500000  1
  Se  Se2  1  0.25448919  0.25448919  0.73653244  1
  Se  Se3  1  0.74551081  0.74551081  0.74551081  1
  Se  Se4  1  0.74551081  0.74551081  0.26346756  1
  Se  Se5  1  0.25448919  0.73653244  0.25448919  1
  Se  Se6  1  0.25448919  0.25448919  0.25448919  1
  Se  Se7  1  0.26346756  0.74551081  0.74551081  1
  Se  Se8  1  0.74551081  0.26346756  0.74551081  1
  Se  Se9  1  0.73653244  0.25448919  0.25448919  1
  Y  Y10  1  0.50000000  0.50000000  0.50000000  1
  Y  Y11  1  0.50000000  0.00000000  0.50000000  1
  Y  Y12  1  0.00000000  0.50000000  0.50000000  1
  Y  Y13  1  0.50000000  0.50000000  0.00000000  1
