# generated using pymatgen
data_Ca2Cu
_symmetry_space_group_name_H-M   'P 1'
_cell_length_a   4.14922815
_cell_length_b   6.03252121
_cell_length_c   14.50215462
_cell_angle_alpha   90.00000000
_cell_angle_beta   90.00000000
_cell_angle_gamma   90.00000000
_symmetry_Int_Tables_number   1
_chemical_formula_structural   Ca2Cu
_chemical_formula_sum   'Ca8 Cu4'
_cell_volume   362.99337969
_cell_formula_units_Z   4
loop_
 _symmetry_equiv_pos_site_id
 _symmetry_equiv_pos_as_xyz
  1  'x, y, z'
loop_
 _atom_site_type_symbol
 _atom_site_label
 _atom_site_symmetry_multiplicity
 _atom_site_fract_x
 _atom_site_fract_y
 _atom_site_fract_z
 _atom_site_occupancy
  Ca  Ca0  1  0.75000000  0.63108950  0.33429435  1
  Ca  Ca1  1  0.25000000  0.36891050  0.66570565  1
  Ca  Ca2  1  0.75000000  0.13108950  0.16570565  1
  Ca  Ca3  1  0.25000000  0.86891050  0.83429435  1
  Ca  Ca4  1  0.75000000  0.86781446  0.59196812  1
  Ca  Ca5  1  0.25000000  0.13218554  0.40803188  1
  Ca  Ca6  1  0.75000000  0.36781446  0.90803188  1
  Ca  Ca7  1  0.25000000  0.63218554  0.09196812  1
  Cu  Cu8  1  0.75000000  0.88903257  0.98347010  1
  Cu  Cu9  1  0.25000000  0.11096743  0.01652990  1
  Cu  Cu10  1  0.75000000  0.38903257  0.51652990  1
  Cu  Cu11  1  0.25000000  0.61096743  0.48347010  1
