# generated using pymatgen
data_Al6Tc
_symmetry_space_group_name_H-M   'P 1'
_cell_length_a   5.04842575
_cell_length_b   5.04842575
_cell_length_c   9.01994371
_cell_angle_alpha   90.00000000
_cell_angle_beta   90.00000000
_cell_angle_gamma   98.27592600
_symmetry_Int_Tables_number   1
_chemical_formula_structural   Al6Tc
_chemical_formula_sum   'Al12 Tc2'
_cell_volume   227.49375169
_cell_formula_units_Z   2
loop_
 _symmetry_equiv_pos_site_id
 _symmetry_equiv_pos_as_xyz
  1  'x, y, z'
loop_
 _atom_site_type_symbol
 _atom_site_label
 _atom_site_symmetry_multiplicity
 _atom_site_fract_x
 _atom_site_fract_y
 _atom_site_fract_z
 _atom_site_occupancy
  Al  Al0  1  0.32398357  0.67601643  0.00000000  1
  Al  Al1  1  0.67601643  0.32398357  0.50000000  1
  Al  Al2  1  0.67601643  0.32398357  0.00000000  1
  Al  Al3  1  0.32398357  0.67601643  0.50000000  1
  Al  Al4  1  0.13347436  0.13347436  0.60033842  1
  Al  Al5  1  0.86652564  0.86652564  0.10033842  1
  Al  Al6  1  0.13347436  0.13347436  0.89966158  1
  Al  Al7  1  0.86652564  0.86652564  0.39966158  1
  Al  Al8  1  0.38986694  0.02859185  0.25000000  1
  Al  Al9  1  0.61013306  0.97140815  0.75000000  1
  Al  Al10  1  0.02859185  0.38986694  0.25000000  1
  Al  Al11  1  0.97140815  0.61013306  0.75000000  1
  Tc  Tc12  1  0.54397830  0.54397830  0.25000000  1
  Tc  Tc13  1  0.45602170  0.45602170  0.75000000  1
