# generated using pymatgen
data_Ni4Mo
_symmetry_space_group_name_H-M   'P 1'
_cell_length_a   3.55566297
_cell_length_b   4.41871462
_cell_length_c   4.41871462
_cell_angle_alpha   80.68404981
_cell_angle_beta   66.27537238
_cell_angle_gamma   66.27537238
_symmetry_Int_Tables_number   1
_chemical_formula_structural   Ni4Mo
_chemical_formula_sum   'Ni4 Mo1'
_cell_volume   58.18612799
_cell_formula_units_Z   1
loop_
 _symmetry_equiv_pos_site_id
 _symmetry_equiv_pos_as_xyz
  1  'x, y, z'
loop_
 _atom_site_type_symbol
 _atom_site_label
 _atom_site_symmetry_multiplicity
 _atom_site_fract_x
 _atom_site_fract_y
 _atom_site_fract_z
 _atom_site_occupancy
  Ni  Ni0  1  0.59933761  0.59907252  0.20225226  1
  Ni  Ni1  1  0.40066239  0.40092748  0.79774774  1
  Ni  Ni2  1  0.19841013  0.20225226  0.40092748  1
  Ni  Ni3  1  0.80158987  0.79774774  0.59907252  1
  Mo  Mo4  1  -0.00000000  0.00000000  -0.00000000  1
