# generated using pymatgen
data_Hf2Al
_symmetry_space_group_name_H-M   'P 1'
_cell_length_a   5.22191903
_cell_length_b   5.50506895
_cell_length_c   5.50506895
_cell_angle_alpha   77.00040463
_cell_angle_beta   61.68733664
_cell_angle_gamma   61.68733657
_symmetry_Int_Tables_number   1
_chemical_formula_structural   Hf2Al
_chemical_formula_sum   'Hf4 Al2'
_cell_volume   122.65595687
_cell_formula_units_Z   2
loop_
 _symmetry_equiv_pos_site_id
 _symmetry_equiv_pos_as_xyz
  1  'x, y, z'
loop_
 _atom_site_type_symbol
 _atom_site_label
 _atom_site_symmetry_multiplicity
 _atom_site_fract_x
 _atom_site_fract_y
 _atom_site_fract_z
 _atom_site_occupancy
  Al  Al0  1  0.75000000  0.00000000  0.00000000  1
  Al  Al1  1  0.25000000  0.00000000  0.00000000  1
  Hf  Hf2  1  0.65116291  0.19767419  0.50000000  1
  Hf  Hf3  1  0.84883709  0.50000000  0.80232581  1
  Hf  Hf4  1  0.34883709  0.80232581  0.50000000  1
  Hf  Hf5  1  0.15116291  0.50000000  0.19767419  1
