# generated using pymatgen
data_NaVO2
_symmetry_space_group_name_H-M   'P 1'
_cell_length_a   5.70943456
_cell_length_b   5.70943457
_cell_length_c   5.70943456
_cell_angle_alpha   31.18364127
_cell_angle_beta   31.18364125
_cell_angle_gamma   31.18364127
_symmetry_Int_Tables_number   1
_chemical_formula_structural   NaVO2
_chemical_formula_sum   'Na1 V1 O2'
_cell_volume   44.27691898
_cell_formula_units_Z   1
loop_
 _symmetry_equiv_pos_site_id
 _symmetry_equiv_pos_as_xyz
  1  'x, y, z'
loop_
 _atom_site_type_symbol
 _atom_site_label
 _atom_site_symmetry_multiplicity
 _atom_site_fract_x
 _atom_site_fract_y
 _atom_site_fract_z
 _atom_site_occupancy
  O  O0  1  0.76610608  0.76610608  0.76610608  1
  O  O1  1  0.23389392  0.23389392  0.23389392  1
  Na  Na2  1  0.00000000  0.00000000  0.00000000  1
  V  V3  1  0.50000000  0.50000000  0.50000000  1
