# generated using pymatgen
data_MnAl6
_symmetry_space_group_name_H-M   'P 1'
_cell_length_a   4.96433086
_cell_length_b   4.96433086
_cell_length_c   8.81915296
_cell_angle_alpha   90.00000000
_cell_angle_beta   90.00000000
_cell_angle_gamma   98.81538997
_symmetry_Int_Tables_number   1
_chemical_formula_structural   MnAl6
_chemical_formula_sum   'Mn2 Al12'
_cell_volume   214.77689453
_cell_formula_units_Z   2
loop_
 _symmetry_equiv_pos_site_id
 _symmetry_equiv_pos_as_xyz
  1  'x, y, z'
loop_
 _atom_site_type_symbol
 _atom_site_label
 _atom_site_symmetry_multiplicity
 _atom_site_fract_x
 _atom_site_fract_y
 _atom_site_fract_z
 _atom_site_occupancy
  Al  Al0  1  0.03128186  0.39619889  0.75000000  1
  Al  Al1  1  0.96871814  0.60380111  0.25000000  1
  Al  Al2  1  0.32666360  0.67333640  0.00000000  1
  Al  Al3  1  0.67333640  0.32666360  0.50000000  1
  Al  Al4  1  0.67333640  0.32666360  0.00000000  1
  Al  Al5  1  0.32666360  0.67333640  0.50000000  1
  Al  Al6  1  0.14022822  0.14022822  0.10042284  1
  Al  Al7  1  0.85977178  0.85977178  0.60042284  1
  Al  Al8  1  0.14022822  0.14022822  0.39957716  1
  Al  Al9  1  0.85977178  0.85977178  0.89957716  1
  Al  Al10  1  0.60380111  0.96871814  0.25000000  1
  Al  Al11  1  0.39619889  0.03128186  0.75000000  1
  Mn  Mn12  1  0.54314138  0.54314138  0.75000000  1
  Mn  Mn13  1  0.45685862  0.45685862  0.25000000  1
