# generated using pymatgen
data_ScGa2
_symmetry_space_group_name_H-M   'P 1'
_cell_length_a   4.12265520
_cell_length_b   5.58155689
_cell_length_c   5.58155689
_cell_angle_alpha   72.82772796
_cell_angle_beta   68.32689933
_cell_angle_gamma   68.32689933
_symmetry_Int_Tables_number   1
_chemical_formula_structural   ScGa2
_chemical_formula_sum   'Sc2 Ga4'
_cell_volume   109.02619604
_cell_formula_units_Z   2
loop_
 _symmetry_equiv_pos_site_id
 _symmetry_equiv_pos_as_xyz
  1  'x, y, z'
loop_
 _atom_site_type_symbol
 _atom_site_label
 _atom_site_symmetry_multiplicity
 _atom_site_fract_x
 _atom_site_fract_y
 _atom_site_fract_z
 _atom_site_occupancy
  Sc  Sc0  1  0.56070203  0.68929797  0.18929797  1
  Sc  Sc1  1  0.43929797  0.31070203  0.81070203  1
  Ga  Ga2  1  0.15804121  0.29594321  0.38797438  1
  Ga  Ga3  1  0.84195879  0.70405679  0.61202562  1
  Ga  Ga4  1  0.15804121  0.88797438  0.79594321  1
  Ga  Ga5  1  0.84195879  0.11202562  0.20405679  1
