# generated using pymatgen
data_CaMgGe
_symmetry_space_group_name_H-M   'P 1'
_cell_length_a   4.46098821
_cell_length_b   7.53601458
_cell_length_c   8.41929467
_cell_angle_alpha   90.00000000
_cell_angle_beta   90.00000000
_cell_angle_gamma   90.00000000
_symmetry_Int_Tables_number   1
_chemical_formula_structural   CaMgGe
_chemical_formula_sum   'Ca4 Mg4 Ge4'
_cell_volume   283.04045602
_cell_formula_units_Z   4
loop_
 _symmetry_equiv_pos_site_id
 _symmetry_equiv_pos_as_xyz
  1  'x, y, z'
loop_
 _atom_site_type_symbol
 _atom_site_label
 _atom_site_symmetry_multiplicity
 _atom_site_fract_x
 _atom_site_fract_y
 _atom_site_fract_z
 _atom_site_occupancy
  Mg  Mg0  1  0.75000000  0.35733757  0.93802408  1
  Mg  Mg1  1  0.25000000  0.64266243  0.06197592  1
  Mg  Mg2  1  0.75000000  0.85733757  0.56197592  1
  Mg  Mg3  1  0.25000000  0.14266243  0.43802408  1
  Ca  Ca4  1  0.75000000  0.47952066  0.32048794  1
  Ca  Ca5  1  0.25000000  0.52047934  0.67951206  1
  Ca  Ca6  1  0.75000000  0.97952066  0.17951206  1
  Ca  Ca7  1  0.25000000  0.02047934  0.82048794  1
  Ge  Ge8  1  0.75000000  0.73211631  0.88317834  1
  Ge  Ge9  1  0.25000000  0.26788369  0.11682166  1
  Ge  Ge10  1  0.75000000  0.23211631  0.61682166  1
  Ge  Ge11  1  0.25000000  0.76788369  0.38317834  1
