# generated using pymatgen
data_MnWO4
_symmetry_space_group_name_H-M   'P 1'
_cell_length_a   4.88312539
_cell_length_b   5.12050263
_cell_length_c   5.85448006
_cell_angle_alpha   90.00000000
_cell_angle_beta   90.00000000
_cell_angle_gamma   91.65787335
_symmetry_Int_Tables_number   1
_chemical_formula_structural   MnWO4
_chemical_formula_sum   'Mn2 W2 O8'
_cell_volume   146.32447292
_cell_formula_units_Z   2
loop_
 _symmetry_equiv_pos_site_id
 _symmetry_equiv_pos_as_xyz
  1  'x, y, z'
loop_
 _atom_site_type_symbol
 _atom_site_label
 _atom_site_symmetry_multiplicity
 _atom_site_fract_x
 _atom_site_fract_y
 _atom_site_fract_z
 _atom_site_occupancy
  O  O0  1  0.74638951  0.10680528  0.37123555  1
  O  O1  1  0.25361049  0.39319472  0.37123555  1
  O  O2  1  0.25361049  0.89319472  0.62876445  1
  O  O3  1  0.74638951  0.60680528  0.62876445  1
  O  O4  1  0.79016747  0.06129502  0.89520212  1
  O  O5  1  0.20983253  0.43870498  0.89520212  1
  O  O6  1  0.20983253  0.93870498  0.10479788  1
  O  O7  1  0.79016747  0.56129502  0.10479788  1
  Mn  Mn8  1  0.50000000  0.75000000  0.32583851  1
  Mn  Mn9  1  0.50000000  0.25000000  0.67416149  1
  W  W10  1  0.00000000  0.75000000  0.82792417  1
  W  W11  1  0.00000000  0.25000000  0.17207583  1
