# generated using pymatgen
data_Cr5O12
_symmetry_space_group_name_H-M   'P 1'
_cell_length_a   8.39352497
_cell_length_b   8.43368511
_cell_length_c   12.27254326
_cell_angle_alpha   90.00000000
_cell_angle_beta   90.00000000
_cell_angle_gamma   90.00000000
_symmetry_Int_Tables_number   1
_chemical_formula_structural   Cr5O12
_chemical_formula_sum   'Cr20 O48'
_cell_volume   868.75304546
_cell_formula_units_Z   4
loop_
 _symmetry_equiv_pos_site_id
 _symmetry_equiv_pos_as_xyz
  1  'x, y, z'
loop_
 _atom_site_type_symbol
 _atom_site_label
 _atom_site_symmetry_multiplicity
 _atom_site_fract_x
 _atom_site_fract_y
 _atom_site_fract_z
 _atom_site_occupancy
  O  O0  1  0.64375207  0.00863330  0.75435958  1
  O  O1  1  0.14375207  0.49136670  0.74564042  1
  O  O2  1  0.85624793  0.00863330  0.24564042  1
  O  O3  1  0.35624793  0.49136670  0.25435958  1
  O  O4  1  0.35624793  0.99136670  0.24564042  1
  O  O5  1  0.85624793  0.50863330  0.25435958  1
  O  O6  1  0.14375207  0.99136670  0.75435958  1
  O  O7  1  0.64375207  0.50863330  0.74564042  1
  O  O8  1  0.62372632  0.21982152  0.56904834  1
  O  O9  1  0.12372632  0.28017848  0.93095166  1
  O  O10  1  0.87627368  0.21982152  0.43095166  1
  O  O11  1  0.37627368  0.28017848  0.06904834  1
  O  O12  1  0.37627368  0.78017848  0.43095166  1
  O  O13  1  0.87627368  0.71982152  0.06904834  1
  O  O14  1  0.12372632  0.78017848  0.56904834  1
  O  O15  1  0.62372632  0.71982152  0.93095166  1
  O  O16  1  0.14511938  0.01568173  0.41974702  1
  O  O17  1  0.85488062  0.98431827  0.58025298  1
  O  O18  1  0.64511938  0.98431827  0.41974702  1
  O  O19  1  0.14511938  0.51568173  0.08025298  1
  O  O20  1  0.91564397  0.27356587  0.75208713  1
  O  O21  1  0.41564397  0.22643413  0.74791287  1
  O  O22  1  0.58435603  0.27356587  0.24791287  1
  O  O23  1  0.08435603  0.22643413  0.25208713  1
  O  O24  1  0.08435603  0.72643413  0.24791287  1
  O  O25  1  0.58435603  0.77356587  0.25208713  1
  O  O26  1  0.41564397  0.72643413  0.75208713  1
  O  O27  1  0.91564397  0.77356587  0.74791287  1
  O  O28  1  0.64732069  0.22200081  0.92096836  1
  O  O29  1  0.14732069  0.27799919  0.57903164  1
  O  O30  1  0.85267931  0.22200081  0.07903164  1
  O  O31  1  0.35267931  0.27799919  0.42096836  1
  O  O32  1  0.35267931  0.77799919  0.07903164  1
  O  O33  1  0.85267931  0.72200081  0.42096836  1
  O  O34  1  0.14732069  0.77799919  0.92096836  1
  O  O35  1  0.64732069  0.72200081  0.57903164  1
  O  O36  1  0.91273831  0.01492616  0.89881765  1
  O  O37  1  0.41273831  0.48507384  0.60118235  1
  O  O38  1  0.58726169  0.01492616  0.10118235  1
  O  O39  1  0.08726169  0.48507384  0.39881765  1
  O  O40  1  0.08726169  0.98507384  0.10118235  1
  O  O41  1  0.58726169  0.51492616  0.39881765  1
  O  O42  1  0.41273831  0.98507384  0.89881765  1
  O  O43  1  0.91273831  0.51492616  0.60118235  1
  O  O44  1  0.85488062  0.48431827  0.91974702  1
  O  O45  1  0.35488062  0.01568173  0.58025298  1
  O  O46  1  0.64511938  0.48431827  0.08025298  1
  O  O47  1  0.35488062  0.51568173  0.91974702  1
  Cr  Cr48  1  0.89048989  0.74805610  0.58658437  1
  Cr  Cr49  1  0.39048989  0.75194390  0.91341563  1
  Cr  Cr50  1  0.60951011  0.74805610  0.41341563  1
  Cr  Cr51  1  0.10951011  0.75194390  0.08658437  1
  Cr  Cr52  1  0.10951011  0.25194390  0.41341563  1
  Cr  Cr53  1  0.60951011  0.24805610  0.08658437  1
  Cr  Cr54  1  0.39048989  0.25194390  0.58658437  1
  Cr  Cr55  1  0.89048989  0.24805610  0.91341563  1
  Cr  Cr56  1  0.52858180  0.61010622  0.67149699  1
  Cr  Cr57  1  0.02858180  0.88989378  0.82850301  1
  Cr  Cr58  1  0.97141820  0.61010622  0.32850301  1
  Cr  Cr59  1  0.47141820  0.88989378  0.17149699  1
  Cr  Cr60  1  0.47141820  0.38989378  0.32850301  1
  Cr  Cr61  1  0.97141820  0.11010622  0.17149699  1
  Cr  Cr62  1  0.02858180  0.38989378  0.67149699  1
  Cr  Cr63  1  0.52858180  0.11010622  0.82850301  1
  Cr  Cr64  1  0.75000000  0.10280358  0.50000000  1
  Cr  Cr65  1  0.25000000  0.39719642  0.00000000  1
  Cr  Cr66  1  0.25000000  0.89719642  0.50000000  1
  Cr  Cr67  1  0.75000000  0.60280358  0.00000000  1
