# generated using pymatgen
data_Cu3Ge
_symmetry_space_group_name_H-M   'P 1'
_cell_length_a   4.55238499
_cell_length_b   4.22801946
_cell_length_c   5.31311577
_cell_angle_alpha   90.00000000
_cell_angle_beta   90.00000000
_cell_angle_gamma   90.00000000
_symmetry_Int_Tables_number   1
_chemical_formula_structural   Cu3Ge
_chemical_formula_sum   'Cu6 Ge2'
_cell_volume   102.26458007
_cell_formula_units_Z   2
loop_
 _symmetry_equiv_pos_site_id
 _symmetry_equiv_pos_as_xyz
  1  'x, y, z'
loop_
 _atom_site_type_symbol
 _atom_site_label
 _atom_site_symmetry_multiplicity
 _atom_site_fract_x
 _atom_site_fract_y
 _atom_site_fract_z
 _atom_site_occupancy
  Cu  Cu0  1  0.16834121  0.75000000  0.25000000  1
  Cu  Cu1  1  0.83165879  0.25000000  0.75000000  1
  Cu  Cu2  1  0.33496401  0.25000000  0.50100133  1
  Cu  Cu3  1  0.33496401  0.25000000  0.99899867  1
  Cu  Cu4  1  0.66503599  0.75000000  0.49899867  1
  Cu  Cu5  1  0.66503599  0.75000000  0.00100133  1
  Ge  Ge6  1  0.82650340  0.25000000  0.25000000  1
  Ge  Ge7  1  0.17349660  0.75000000  0.75000000  1
