# generated using pymatgen
data_B6O
_symmetry_space_group_name_H-M   'P 1'
_cell_length_a   5.15348338
_cell_length_b   5.15348338
_cell_length_c   5.15348338
_cell_angle_alpha   63.10621055
_cell_angle_beta   63.10621052
_cell_angle_gamma   63.10621055
_symmetry_Int_Tables_number   1
_chemical_formula_structural   B6O
_chemical_formula_sum   'B12 O2'
_cell_volume   103.44887671
_cell_formula_units_Z   2
loop_
 _symmetry_equiv_pos_site_id
 _symmetry_equiv_pos_as_xyz
  1  'x, y, z'
loop_
 _atom_site_type_symbol
 _atom_site_label
 _atom_site_symmetry_multiplicity
 _atom_site_fract_x
 _atom_site_fract_y
 _atom_site_fract_z
 _atom_site_occupancy
  B  B0  1  0.79882904  0.32372064  0.79882904  1
  B  B1  1  0.79882904  0.79882904  0.32372064  1
  B  B2  1  0.32372064  0.79882904  0.79882904  1
  B  B3  1  0.67627936  0.20117096  0.20117096  1
  B  B4  1  0.20117096  0.67627936  0.20117096  1
  B  B5  1  0.20117096  0.20117096  0.67627936  1
  B  B6  1  0.99769722  0.66683690  0.99769722  1
  B  B7  1  0.99769722  0.99769722  0.66683690  1
  B  B8  1  0.66683690  0.99769722  0.99769722  1
  B  B9  1  0.33316310  0.00230278  0.00230278  1
  B  B10  1  0.00230278  0.33316310  0.00230278  1
  B  B11  1  0.00230278  0.00230278  0.33316310  1
  O  O12  1  0.37773334  0.37773334  0.37773334  1
  O  O13  1  0.62226666  0.62226666  0.62226666  1
