# generated using pymatgen
data_Zr2InNi2
_symmetry_space_group_name_H-M   'P 1'
_cell_length_a   3.35082437
_cell_length_b   7.21672001
_cell_length_c   7.21672001
_cell_angle_alpha   90.00000000
_cell_angle_beta   90.00000000
_cell_angle_gamma   90.00000000
_symmetry_Int_Tables_number   1
_chemical_formula_structural   Zr2InNi2
_chemical_formula_sum   'Zr4 In2 Ni4'
_cell_volume   174.51444386
_cell_formula_units_Z   2
loop_
 _symmetry_equiv_pos_site_id
 _symmetry_equiv_pos_as_xyz
  1  'x, y, z'
loop_
 _atom_site_type_symbol
 _atom_site_label
 _atom_site_symmetry_multiplicity
 _atom_site_fract_x
 _atom_site_fract_y
 _atom_site_fract_z
 _atom_site_occupancy
  Ni  Ni0  1  0.00000000  0.37523148  0.12476852  1
  Ni  Ni1  1  0.00000000  0.87523148  0.37523148  1
  Ni  Ni2  1  0.00000000  0.12476852  0.62476852  1
  Ni  Ni3  1  0.00000000  0.62476852  0.87523148  1
  Zr  Zr4  1  0.50000000  0.66775938  0.16775938  1
  Zr  Zr5  1  0.50000000  0.83224062  0.66775938  1
  Zr  Zr6  1  0.50000000  0.16775938  0.33224062  1
  Zr  Zr7  1  0.50000000  0.33224062  0.83224062  1
  In  In8  1  0.00000000  0.00000000  0.00000000  1
  In  In9  1  0.00000000  0.50000000  0.50000000  1
