# generated using pymatgen
data_Ca3Au4
_symmetry_space_group_name_H-M   'P 1'
_cell_length_a   8.28896397
_cell_length_b   8.28896397
_cell_length_c   8.28896396
_cell_angle_alpha   114.41483498
_cell_angle_beta   114.41483509
_cell_angle_gamma   114.41483506
_symmetry_Int_Tables_number   1
_chemical_formula_structural   Ca3Au4
_chemical_formula_sum   'Ca6 Au8'
_cell_volume   335.09757313
_cell_formula_units_Z   2
loop_
 _symmetry_equiv_pos_site_id
 _symmetry_equiv_pos_as_xyz
  1  'x, y, z'
loop_
 _atom_site_type_symbol
 _atom_site_label
 _atom_site_symmetry_multiplicity
 _atom_site_fract_x
 _atom_site_fract_y
 _atom_site_fract_z
 _atom_site_occupancy
  Ca  Ca0  1  0.60005329  0.97409317  0.71931429  1
  Ca  Ca1  1  0.97409317  0.71931429  0.60005329  1
  Ca  Ca2  1  0.71931429  0.60005329  0.97409317  1
  Ca  Ca3  1  0.39994671  0.02590683  0.28068571  1
  Ca  Ca4  1  0.02590683  0.28068571  0.39994671  1
  Ca  Ca5  1  0.28068571  0.39994671  0.02590683  1
  Au  Au6  1  0.94385901  0.44492493  0.77794367  1
  Au  Au7  1  0.77794367  0.94385901  0.44492493  1
  Au  Au8  1  0.44492493  0.77794367  0.94385901  1
  Au  Au9  1  0.22205633  0.05614099  0.55507507  1
  Au  Au10  1  0.05614099  0.55507507  0.22205633  1
  Au  Au11  1  0.55507507  0.22205633  0.05614099  1
  Au  Au12  1  0.50000000  0.50000000  0.50000000  1
  Au  Au13  1  0.00000000  0.00000000  0.00000000  1
