# generated using pymatgen
data_SrZn
_symmetry_space_group_name_H-M   'P 1'
_cell_length_a   4.49967905
_cell_length_b   6.44130155
_cell_length_c   8.87794379
_cell_angle_alpha   90.00000000
_cell_angle_beta   90.00000000
_cell_angle_gamma   90.00000000
_symmetry_Int_Tables_number   1
_chemical_formula_structural   SrZn
_chemical_formula_sum   'Sr4 Zn4'
_cell_volume   257.31645524
_cell_formula_units_Z   4
loop_
 _symmetry_equiv_pos_site_id
 _symmetry_equiv_pos_as_xyz
  1  'x, y, z'
loop_
 _atom_site_type_symbol
 _atom_site_label
 _atom_site_symmetry_multiplicity
 _atom_site_fract_x
 _atom_site_fract_y
 _atom_site_fract_z
 _atom_site_occupancy
  Zn  Zn0  1  0.25000000  0.89817262  0.52755841  1
  Zn  Zn1  1  0.75000000  0.10182738  0.47244159  1
  Zn  Zn2  1  0.75000000  0.39817262  0.97244159  1
  Zn  Zn3  1  0.25000000  0.60182738  0.02755841  1
  Sr  Sr4  1  0.25000000  0.38685002  0.67910978  1
  Sr  Sr5  1  0.75000000  0.61314998  0.32089022  1
  Sr  Sr6  1  0.75000000  0.88685002  0.82089022  1
  Sr  Sr7  1  0.25000000  0.11314998  0.17910978  1
