# generated using pymatgen
data_Nb2O5
_symmetry_space_group_name_H-M   'P 1'
_cell_length_a   3.87272959
_cell_length_b   4.06094573
_cell_length_c   6.82690439
_cell_angle_alpha   90.72547687
_cell_angle_beta   106.47741130
_cell_angle_gamma   90.00000002
_symmetry_Int_Tables_number   1
_chemical_formula_structural   Nb2O5
_chemical_formula_sum   'Nb2 O5'
_cell_volume   102.94801181
_cell_formula_units_Z   1
loop_
 _symmetry_equiv_pos_site_id
 _symmetry_equiv_pos_as_xyz
  1  'x, y, z'
loop_
 _atom_site_type_symbol
 _atom_site_label
 _atom_site_symmetry_multiplicity
 _atom_site_fract_x
 _atom_site_fract_y
 _atom_site_fract_z
 _atom_site_occupancy
  O  O0  1  0.14758280  0.51063448  0.29516560  1
  O  O1  1  0.85241720  0.48936552  0.70483440  1
  O  O2  1  0.00000000  0.00000000  0.00000000  1
  O  O3  1  0.31496667  0.99691528  0.62993335  1
  O  O4  1  0.68503333  0.00308472  0.37006665  1
  Nb  Nb5  1  0.14616014  0.06721590  0.29232028  1
  Nb  Nb6  1  0.85383986  0.93278410  0.70767972  1
