# generated using pymatgen
data_FeSi2
_symmetry_space_group_name_H-M   'P 1'
_cell_length_a   6.28414664
_cell_length_b   6.28414665
_cell_length_c   7.81776527
_cell_angle_alpha   90.00000000
_cell_angle_beta   90.00000000
_cell_angle_gamma   103.59367685
_symmetry_Int_Tables_number   1
_chemical_formula_structural   FeSi2
_chemical_formula_sum   'Fe8 Si16'
_cell_volume   300.07905263
_cell_formula_units_Z   8
loop_
 _symmetry_equiv_pos_site_id
 _symmetry_equiv_pos_as_xyz
  1  'x, y, z'
loop_
 _atom_site_type_symbol
 _atom_site_label
 _atom_site_symmetry_multiplicity
 _atom_site_fract_x
 _atom_site_fract_y
 _atom_site_fract_z
 _atom_site_occupancy
  Si  Si0  1  0.67136161  0.41830581  0.22682805  1
  Si  Si1  1  0.82863839  0.08169419  0.72682805  1
  Si  Si2  1  0.91830581  0.17136161  0.27317195  1
  Si  Si3  1  0.58169419  0.32863839  0.77317195  1
  Si  Si4  1  0.32863839  0.58169419  0.77317195  1
  Si  Si5  1  0.17136161  0.91830581  0.27317195  1
  Si  Si6  1  0.08169419  0.82863839  0.72682805  1
  Si  Si7  1  0.41830581  0.67136161  0.22682805  1
  Si  Si8  1  0.40184366  0.14556865  0.04978297  1
  Si  Si9  1  0.09815634  0.35443135  0.54978297  1
  Si  Si10  1  0.64556865  0.90184366  0.45021703  1
  Si  Si11  1  0.85443135  0.59815634  0.95021703  1
  Si  Si12  1  0.59815634  0.85443135  0.95021703  1
  Si  Si13  1  0.90184366  0.64556865  0.45021703  1
  Si  Si14  1  0.35443135  0.09815634  0.54978297  1
  Si  Si15  1  0.14556865  0.40184366  0.04978297  1
  Fe  Fe16  1  0.19250396  0.19250396  0.81231240  1
  Fe  Fe17  1  0.30749604  0.30749604  0.31231240  1
  Fe  Fe18  1  0.69250396  0.69250396  0.68768760  1
  Fe  Fe19  1  0.80749604  0.80749604  0.18768760  1
  Fe  Fe20  1  0.71651696  0.28348304  0.50000000  1
  Fe  Fe21  1  0.78348304  0.21651696  0.00000000  1
  Fe  Fe22  1  0.28348304  0.71651696  0.50000000  1
  Fe  Fe23  1  0.21651696  0.78348304  0.00000000  1
