# generated using pymatgen
data_YAl
_symmetry_space_group_name_H-M   'P 1'
_cell_length_a   3.83281657
_cell_length_b   4.48258562
_cell_length_c   6.08344055
_cell_angle_alpha   90.00000000
_cell_angle_beta   108.36204944
_cell_angle_gamma   90.00000000
_symmetry_Int_Tables_number   1
_chemical_formula_structural   YAl
_chemical_formula_sum   'Y2 Al2'
_cell_volume   99.19755111
_cell_formula_units_Z   2
loop_
 _symmetry_equiv_pos_site_id
 _symmetry_equiv_pos_as_xyz
  1  'x, y, z'
loop_
 _atom_site_type_symbol
 _atom_site_label
 _atom_site_symmetry_multiplicity
 _atom_site_fract_x
 _atom_site_fract_y
 _atom_site_fract_z
 _atom_site_occupancy
  Y  Y0  1  0.64973847  0.75000000  0.29947695  1
  Y  Y1  1  0.35026153  0.25000000  0.70052305  1
  Al  Al2  1  0.93021172  0.75000000  0.86042344  1
  Al  Al3  1  0.06978828  0.25000000  0.13957656  1
