# generated using pymatgen
data_BePd3
_symmetry_space_group_name_H-M   'P 1'
_cell_length_a   2.87325930
_cell_length_b   5.07933857
_cell_length_c   7.69467930
_cell_angle_alpha   90.00000000
_cell_angle_beta   90.00000000
_cell_angle_gamma   106.42965501
_symmetry_Int_Tables_number   1
_chemical_formula_structural   BePd3
_chemical_formula_sum   'Be2 Pd6'
_cell_volume   107.71273629
_cell_formula_units_Z   2
loop_
 _symmetry_equiv_pos_site_id
 _symmetry_equiv_pos_as_xyz
  1  'x, y, z'
loop_
 _atom_site_type_symbol
 _atom_site_label
 _atom_site_symmetry_multiplicity
 _atom_site_fract_x
 _atom_site_fract_y
 _atom_site_fract_z
 _atom_site_occupancy
  Be  Be0  1  0.74705304  0.49410609  0.75000000  1
  Be  Be1  1  0.25294696  0.50589391  0.25000000  1
  Pd  Pd2  1  0.43273167  0.86546334  0.75000000  1
  Pd  Pd3  1  0.56726833  0.13453666  0.25000000  1
  Pd  Pd4  1  0.13637777  0.27275553  0.93889239  1
  Pd  Pd5  1  0.86362223  0.72724447  0.06110761  1
  Pd  Pd6  1  0.86362223  0.72724447  0.43889239  1
  Pd  Pd7  1  0.13637777  0.27275553  0.56110761  1
