# generated using pymatgen
data_MgPd2
_symmetry_space_group_name_H-M   'P 1'
_cell_length_a   4.19382385
_cell_length_b   5.52573885
_cell_length_c   8.19361645
_cell_angle_alpha   90.00000000
_cell_angle_beta   90.00000000
_cell_angle_gamma   90.00000000
_symmetry_Int_Tables_number   1
_chemical_formula_structural   MgPd2
_chemical_formula_sum   'Mg4 Pd8'
_cell_volume   189.87866587
_cell_formula_units_Z   4
loop_
 _symmetry_equiv_pos_site_id
 _symmetry_equiv_pos_as_xyz
  1  'x, y, z'
loop_
 _atom_site_type_symbol
 _atom_site_label
 _atom_site_symmetry_multiplicity
 _atom_site_fract_x
 _atom_site_fract_y
 _atom_site_fract_z
 _atom_site_occupancy
  Mg  Mg0  1  0.75000000  0.66746519  0.90193198  1
  Mg  Mg1  1  0.25000000  0.33253481  0.09806802  1
  Mg  Mg2  1  0.75000000  0.16746519  0.59806802  1
  Mg  Mg3  1  0.25000000  0.83253481  0.40193198  1
  Pd  Pd4  1  0.75000000  0.65786121  0.57287698  1
  Pd  Pd5  1  0.25000000  0.34213879  0.42712302  1
  Pd  Pd6  1  0.75000000  0.15786121  0.92712302  1
  Pd  Pd7  1  0.25000000  0.84213879  0.07287698  1
  Pd  Pd8  1  0.75000000  0.57019510  0.23617160  1
  Pd  Pd9  1  0.25000000  0.42980490  0.76382840  1
  Pd  Pd10  1  0.75000000  0.07019510  0.26382840  1
  Pd  Pd11  1  0.25000000  0.92980490  0.73617160  1
