# generated using pymatgen
data_BaMg2
_symmetry_space_group_name_H-M   'P 1'
_cell_length_a   6.56206911
_cell_length_b   6.56206911
_cell_length_c   11.01903049
_cell_angle_alpha   90.00000000
_cell_angle_beta   90.00000000
_cell_angle_gamma   120.02997572
_symmetry_Int_Tables_number   1
_chemical_formula_structural   BaMg2
_chemical_formula_sum   'Ba4 Mg8'
_cell_volume   410.79424958
_cell_formula_units_Z   4
loop_
 _symmetry_equiv_pos_site_id
 _symmetry_equiv_pos_as_xyz
  1  'x, y, z'
loop_
 _atom_site_type_symbol
 _atom_site_label
 _atom_site_symmetry_multiplicity
 _atom_site_fract_x
 _atom_site_fract_y
 _atom_site_fract_z
 _atom_site_occupancy
  Ba  Ba0  1  0.66669699  0.33330301  0.56100702  1
  Ba  Ba1  1  0.33330301  0.66669699  0.43899298  1
  Ba  Ba2  1  0.33330301  0.66669699  0.06100702  1
  Ba  Ba3  1  0.66669699  0.33330301  0.93899298  1
  Mg  Mg4  1  0.00000000  0.00000000  0.50000000  1
  Mg  Mg5  1  0.00000000  0.00000000  -0.00000000  1
  Mg  Mg6  1  0.16655548  0.33315919  0.75000000  1
  Mg  Mg7  1  0.16657645  0.83342355  0.75000000  1
  Mg  Mg8  1  0.66684081  0.83344452  0.75000000  1
  Mg  Mg9  1  0.83344452  0.66684081  0.25000000  1
  Mg  Mg10  1  0.83342355  0.16657645  0.25000000  1
  Mg  Mg11  1  0.33315919  0.16655548  0.25000000  1
