# generated using pymatgen
data_Hf3Sb
_symmetry_space_group_name_H-M   'P 1'
_cell_length_a   5.69511429
_cell_length_b   8.44360658
_cell_length_c   8.44360658
_cell_angle_alpha   83.46941386
_cell_angle_beta   70.29094043
_cell_angle_gamma   70.29094043
_symmetry_Int_Tables_number   1
_chemical_formula_structural   Hf3Sb
_chemical_formula_sum   'Hf12 Sb4'
_cell_volume   359.85099664
_cell_formula_units_Z   4
loop_
 _symmetry_equiv_pos_site_id
 _symmetry_equiv_pos_as_xyz
  1  'x, y, z'
loop_
 _atom_site_type_symbol
 _atom_site_label
 _atom_site_symmetry_multiplicity
 _atom_site_fract_x
 _atom_site_fract_y
 _atom_site_fract_z
 _atom_site_occupancy
  Hf  Hf0  1  0.69130336  0.18780882  0.02226838  1
  Hf  Hf1  1  0.90138056  0.81219118  0.97773162  1
  Hf  Hf2  1  0.12088782  0.97773162  0.18780882  1
  Hf  Hf3  1  0.28642826  0.02226838  0.81219118  1
  Hf  Hf4  1  0.99815521  0.37683966  0.66984878  1
  Hf  Hf5  1  0.04484365  0.62316034  0.33015122  1
  Hf  Hf6  1  0.62500513  0.33015122  0.37683966  1
  Hf  Hf7  1  0.33199601  0.66984878  0.62316034  1
  Hf  Hf8  1  0.02071818  0.40194250  0.02877518  1
  Hf  Hf9  1  0.45143586  0.59805750  0.97122482  1
  Hf  Hf10  1  0.57733932  0.97122482  0.40194250  1
  Hf  Hf11  1  0.95050665  0.02877518  0.59805750  1
  Sb  Sb12  1  0.49092169  0.32256805  0.74197572  1
  Sb  Sb13  1  0.55546546  0.67743195  0.25802428  1
  Sb  Sb14  1  0.18651026  0.25802428  0.32256805  1
  Sb  Sb15  1  0.76710259  0.74197572  0.67743195  1
