# generated using pymatgen
data_P2W
_symmetry_space_group_name_H-M   'P 1'
_cell_length_a   3.18134320
_cell_length_b   5.00739215
_cell_length_c   5.83943660
_cell_angle_alpha   90.00000000
_cell_angle_beta   105.80722339
_cell_angle_gamma   90.00000000
_symmetry_Int_Tables_number   1
_chemical_formula_structural   P2W
_chemical_formula_sum   'P4 W2'
_cell_volume   89.50577372
_cell_formula_units_Z   2
loop_
 _symmetry_equiv_pos_site_id
 _symmetry_equiv_pos_as_xyz
  1  'x, y, z'
loop_
 _atom_site_type_symbol
 _atom_site_label
 _atom_site_symmetry_multiplicity
 _atom_site_fract_x
 _atom_site_fract_y
 _atom_site_fract_z
 _atom_site_occupancy
  P  P0  1  0.43035529  0.61668183  0.86071058  1
  P  P1  1  0.56964471  0.11668183  0.13928942  1
  P  P2  1  0.70177310  0.80058234  0.40354620  1
  P  P3  1  0.29822690  0.30058234  0.59645380  1
  W  W4  1  0.09373919  0.49973583  0.18747838  1
  W  W5  1  0.90626081  0.99973583  0.81252162  1
