# generated using pymatgen
data_SrMgSi
_symmetry_space_group_name_H-M   'P 1'
_cell_length_a   4.59633484
_cell_length_b   7.82278801
_cell_length_c   8.53059087
_cell_angle_alpha   90.00000000
_cell_angle_beta   90.00000000
_cell_angle_gamma   90.00000000
_symmetry_Int_Tables_number   1
_chemical_formula_structural   SrMgSi
_chemical_formula_sum   'Sr4 Mg4 Si4'
_cell_volume   306.72723115
_cell_formula_units_Z   4
loop_
 _symmetry_equiv_pos_site_id
 _symmetry_equiv_pos_as_xyz
  1  'x, y, z'
loop_
 _atom_site_type_symbol
 _atom_site_label
 _atom_site_symmetry_multiplicity
 _atom_site_fract_x
 _atom_site_fract_y
 _atom_site_fract_z
 _atom_site_occupancy
  Mg  Mg0  1  0.75000000  0.35687458  0.93625391  1
  Mg  Mg1  1  0.25000000  0.64312542  0.06374609  1
  Mg  Mg2  1  0.75000000  0.85687458  0.56374609  1
  Mg  Mg3  1  0.25000000  0.14312542  0.43625391  1
  Si  Si4  1  0.75000000  0.21874459  0.60951036  1
  Si  Si5  1  0.25000000  0.28125541  0.10951036  1
  Si  Si6  1  0.25000000  0.78125541  0.39048964  1
  Si  Si7  1  0.75000000  0.71874459  0.89048964  1
  Sr  Sr8  1  0.25000000  0.01497384  0.81653803  1
  Sr  Sr9  1  0.25000000  0.51497384  0.68346197  1
  Sr  Sr10  1  0.75000000  0.48502616  0.31653803  1
  Sr  Sr11  1  0.75000000  0.98502616  0.18346197  1
