# generated using pymatgen
data_YSi2
_symmetry_space_group_name_H-M   'P 1'
_cell_length_a   4.00605070
_cell_length_b   3.98454993
_cell_length_c   7.81932207
_cell_angle_alpha   104.76106993
_cell_angle_beta   104.84254228
_cell_angle_gamma   90.00000000
_symmetry_Int_Tables_number   1
_chemical_formula_structural   YSi2
_chemical_formula_sum   'Y2 Si4'
_cell_volume   116.38321386
_cell_formula_units_Z   2
loop_
 _symmetry_equiv_pos_site_id
 _symmetry_equiv_pos_as_xyz
  1  'x, y, z'
loop_
 _atom_site_type_symbol
 _atom_site_label
 _atom_site_symmetry_multiplicity
 _atom_site_fract_x
 _atom_site_fract_y
 _atom_site_fract_z
 _atom_site_occupancy
  Y  Y0  1  0.62539513  0.37539513  0.75079027  1
  Y  Y1  1  0.37460487  0.62460487  0.24920973  1
  Si  Si2  1  0.04256687  0.79256687  0.58513373  1
  Si  Si3  1  0.95743313  0.20743313  0.41486627  1
  Si  Si4  1  0.20790167  0.95790167  0.91580334  1
  Si  Si5  1  0.79209833  0.04209833  0.08419666  1
