# generated using pymatgen
data_BaFeO3
_symmetry_space_group_name_H-M   'P 1'
_cell_length_a   4.03060745
_cell_length_b   4.03060745
_cell_length_c   4.03060745
_cell_angle_alpha   89.89670892
_cell_angle_beta   89.89670891
_cell_angle_gamma   89.89670895
_symmetry_Int_Tables_number   1
_chemical_formula_structural   BaFeO3
_chemical_formula_sum   'Ba1 Fe1 O3'
_cell_volume   65.48010923
_cell_formula_units_Z   1
loop_
 _symmetry_equiv_pos_site_id
 _symmetry_equiv_pos_as_xyz
  1  'x, y, z'
loop_
 _atom_site_type_symbol
 _atom_site_label
 _atom_site_symmetry_multiplicity
 _atom_site_fract_x
 _atom_site_fract_y
 _atom_site_fract_z
 _atom_site_occupancy
  O  O0  1  0.00000098  0.50000008  0.49999882  1
  O  O1  1  0.49999884  0.50000008  0.00000090  1
  O  O2  1  0.50000008  0.00000104  0.49999882  1
  Fe  Fe3  1  0.50000122  0.49999936  0.50000052  1
  Ba  Ba4  1  0.00000000  0.00000000  0.00000000  1
