# generated using pymatgen
data_Sb7Mo3
_symmetry_space_group_name_H-M   'P 1'
_cell_length_a   8.36984750
_cell_length_b   8.36984750
_cell_length_c   8.36984750
_cell_angle_alpha   109.47122067
_cell_angle_beta   109.47122066
_cell_angle_gamma   109.47122063
_symmetry_Int_Tables_number   1
_chemical_formula_structural   Sb7Mo3
_chemical_formula_sum   'Sb14 Mo6'
_cell_volume   451.36797716
_cell_formula_units_Z   2
loop_
 _symmetry_equiv_pos_site_id
 _symmetry_equiv_pos_as_xyz
  1  'x, y, z'
loop_
 _atom_site_type_symbol
 _atom_site_label
 _atom_site_symmetry_multiplicity
 _atom_site_fract_x
 _atom_site_fract_y
 _atom_site_fract_z
 _atom_site_occupancy
  Mo  Mo0  1  0.00000000  0.34220018  0.34220018  1
  Mo  Mo1  1  0.34220018  0.00000000  0.34220018  1
  Mo  Mo2  1  0.65779982  0.00000000  0.65779982  1
  Mo  Mo3  1  0.65779982  0.65779982  0.00000000  1
  Mo  Mo4  1  0.34220018  0.34220018  0.00000000  1
  Mo  Mo5  1  0.00000000  0.65779982  0.65779982  1
  Sb  Sb6  1  0.50000000  0.75000000  0.25000000  1
  Sb  Sb7  1  0.75000000  0.50000000  0.25000000  1
  Sb  Sb8  1  0.25000000  0.50000000  0.75000000  1
  Sb  Sb9  1  0.75000000  0.25000000  0.50000000  1
  Sb  Sb10  1  0.25000000  0.75000000  0.50000000  1
  Sb  Sb11  1  0.50000000  0.25000000  0.75000000  1
  Sb  Sb12  1  0.32158459  0.32158459  0.32158459  1
  Sb  Sb13  1  0.32158459  0.00000000  0.00000000  1
  Sb  Sb14  1  0.00000000  0.32158459  0.00000000  1
  Sb  Sb15  1  0.00000000  0.00000000  0.32158459  1
  Sb  Sb16  1  0.00000000  0.67841541  0.00000000  1
  Sb  Sb17  1  0.00000000  0.00000000  0.67841541  1
  Sb  Sb18  1  0.67841541  0.00000000  0.00000000  1
  Sb  Sb19  1  0.67841541  0.67841541  0.67841541  1
