# generated using pymatgen
data_Ni2Ge
_symmetry_space_group_name_H-M   'P 1'
_cell_length_a   3.83914619
_cell_length_b   5.11002152
_cell_length_c   7.27282276
_cell_angle_alpha   90.00000000
_cell_angle_beta   90.00000000
_cell_angle_gamma   90.00000000
_symmetry_Int_Tables_number   1
_chemical_formula_structural   Ni2Ge
_chemical_formula_sum   'Ni8 Ge4'
_cell_volume   142.67910709
_cell_formula_units_Z   4
loop_
 _symmetry_equiv_pos_site_id
 _symmetry_equiv_pos_as_xyz
  1  'x, y, z'
loop_
 _atom_site_type_symbol
 _atom_site_label
 _atom_site_symmetry_multiplicity
 _atom_site_fract_x
 _atom_site_fract_y
 _atom_site_fract_z
 _atom_site_occupancy
  Ni  Ni0  1  0.75000000  0.67278968  0.93992254  1
  Ni  Ni1  1  0.25000000  0.32721032  0.06007746  1
  Ni  Ni2  1  0.75000000  0.17278968  0.56007746  1
  Ni  Ni3  1  0.25000000  0.82721032  0.43992254  1
  Ni  Ni4  1  0.75000000  0.04437430  0.20888853  1
  Ni  Ni5  1  0.25000000  0.95562570  0.79111147  1
  Ni  Ni6  1  0.75000000  0.54437430  0.29111147  1
  Ni  Ni7  1  0.25000000  0.45562570  0.70888853  1
  Ge  Ge8  1  0.75000000  0.70974205  0.61300185  1
  Ge  Ge9  1  0.25000000  0.29025795  0.38699815  1
  Ge  Ge10  1  0.75000000  0.20974205  0.88699815  1
  Ge  Ge11  1  0.25000000  0.79025795  0.11300185  1
