# generated using pymatgen
data_ZrVGe
_symmetry_space_group_name_H-M   'P 1'
_cell_length_a   3.75320269
_cell_length_b   3.75320268
_cell_length_c   7.75956659
_cell_angle_alpha   103.99537532
_cell_angle_beta   103.99537530
_cell_angle_gamma   89.99999996
_symmetry_Int_Tables_number   1
_chemical_formula_structural   ZrVGe
_chemical_formula_sum   'Zr2 V2 Ge2'
_cell_volume   102.71351696
_cell_formula_units_Z   2
loop_
 _symmetry_equiv_pos_site_id
 _symmetry_equiv_pos_as_xyz
  1  'x, y, z'
loop_
 _atom_site_type_symbol
 _atom_site_label
 _atom_site_symmetry_multiplicity
 _atom_site_fract_x
 _atom_site_fract_y
 _atom_site_fract_z
 _atom_site_occupancy
  V  V0  1  0.00000000  0.50000000  0.00000000  1
  V  V1  1  0.50000000  0.00000000  0.00000000  1
  Ge  Ge2  1  0.12673921  0.12673921  0.25347842  1
  Ge  Ge3  1  0.87326079  0.87326079  0.74652158  1
  Zr  Zr4  1  0.67631291  0.67631291  0.35262582  1
  Zr  Zr5  1  0.32368709  0.32368709  0.64737418  1
