# generated using pymatgen
data_CdWO4
_symmetry_space_group_name_H-M   'P 1'
_cell_length_a   5.09267784
_cell_length_b   5.20187138
_cell_length_c   6.01034152
_cell_angle_alpha   90.00000000
_cell_angle_beta   90.00000000
_cell_angle_gamma   91.81598414
_symmetry_Int_Tables_number   1
_chemical_formula_structural   CdWO4
_chemical_formula_sum   'Cd2 W2 O8'
_cell_volume   159.14272428
_cell_formula_units_Z   2
loop_
 _symmetry_equiv_pos_site_id
 _symmetry_equiv_pos_as_xyz
  1  'x, y, z'
loop_
 _atom_site_type_symbol
 _atom_site_label
 _atom_site_symmetry_multiplicity
 _atom_site_fract_x
 _atom_site_fract_y
 _atom_site_fract_z
 _atom_site_occupancy
  O  O0  1  0.75575232  0.11682733  0.36452022  1
  O  O1  1  0.24424768  0.38317267  0.36452022  1
  O  O2  1  0.24424768  0.88317267  0.63547978  1
  O  O3  1  0.75575232  0.61682733  0.63547978  1
  O  O4  1  0.79975553  0.05583389  0.90197073  1
  O  O5  1  0.20024447  0.44416611  0.90197073  1
  O  O6  1  0.20024447  0.94416611  0.09802927  1
  O  O7  1  0.79975553  0.55583389  0.09802927  1
  Cd  Cd8  1  0.50000000  0.25000000  0.68438294  1
  Cd  Cd9  1  0.50000000  0.75000000  0.31561706  1
  W  W10  1  0.00000000  0.25000000  0.16866496  1
  W  W11  1  0.00000000  0.75000000  0.83133504  1
