# generated using pymatgen
data_BaC2
_symmetry_space_group_name_H-M   'P 1'
_cell_length_a   4.51420443
_cell_length_b   4.51420443
_cell_length_c   8.34073349
_cell_angle_alpha   72.95703066
_cell_angle_beta   72.95703064
_cell_angle_gamma   63.89415510
_symmetry_Int_Tables_number   1
_chemical_formula_structural   BaC2
_chemical_formula_sum   'Ba2 C4'
_cell_volume   143.23447232
_cell_formula_units_Z   2
loop_
 _symmetry_equiv_pos_site_id
 _symmetry_equiv_pos_as_xyz
  1  'x, y, z'
loop_
 _atom_site_type_symbol
 _atom_site_label
 _atom_site_symmetry_multiplicity
 _atom_site_fract_x
 _atom_site_fract_y
 _atom_site_fract_z
 _atom_site_occupancy
  C  C0  1  0.10672199  0.41402782  0.44552651  1
  C  C1  1  0.58597218  0.89327801  0.05447349  1
  C  C2  1  0.41402782  0.10672199  0.94552651  1
  C  C3  1  0.89327801  0.58597218  0.55447349  1
  Ba  Ba4  1  0.81021042  0.18978958  0.25000000  1
  Ba  Ba5  1  0.18978958  0.81021042  0.75000000  1
