# generated using pymatgen
data_HfSiPd
_symmetry_space_group_name_H-M   'P 1'
_cell_length_a   3.89109844
_cell_length_b   6.60601169
_cell_length_c   7.61565343
_cell_angle_alpha   90.00000000
_cell_angle_beta   90.00000000
_cell_angle_gamma   90.00000000
_symmetry_Int_Tables_number   1
_chemical_formula_structural   HfSiPd
_chemical_formula_sum   'Hf4 Si4 Pd4'
_cell_volume   195.75764335
_cell_formula_units_Z   4
loop_
 _symmetry_equiv_pos_site_id
 _symmetry_equiv_pos_as_xyz
  1  'x, y, z'
loop_
 _atom_site_type_symbol
 _atom_site_label
 _atom_site_symmetry_multiplicity
 _atom_site_fract_x
 _atom_site_fract_y
 _atom_site_fract_z
 _atom_site_occupancy
  Si  Si0  1  0.25000000  0.25827592  0.87578690  1
  Si  Si1  1  0.75000000  0.74172408  0.12421310  1
  Si  Si2  1  0.25000000  0.75827592  0.62421310  1
  Si  Si3  1  0.75000000  0.24172408  0.37578690  1
  Pd  Pd4  1  0.75000000  0.85688163  0.43789005  1
  Pd  Pd5  1  0.25000000  0.14311837  0.56210995  1
  Pd  Pd6  1  0.75000000  0.35688163  0.06210995  1
  Pd  Pd7  1  0.25000000  0.64311837  0.93789005  1
  Hf  Hf8  1  0.25000000  0.52780833  0.32103768  1
  Hf  Hf9  1  0.75000000  0.47219167  0.67896232  1
  Hf  Hf10  1  0.25000000  0.02780833  0.17896232  1
  Hf  Hf11  1  0.75000000  0.97219167  0.82103768  1
