# generated using pymatgen
data_Fe2B4Mo
_symmetry_space_group_name_H-M   'P 1'
_cell_length_a   2.98711662
_cell_length_b   3.09851330
_cell_length_c   6.65591274
_cell_angle_alpha   103.45985291
_cell_angle_beta   102.96734665
_cell_angle_gamma   89.99999993
_symmetry_Int_Tables_number   1
_chemical_formula_structural   Fe2B4Mo
_chemical_formula_sum   'Fe2 B4 Mo1'
_cell_volume   58.29590861
_cell_formula_units_Z   1
loop_
 _symmetry_equiv_pos_site_id
 _symmetry_equiv_pos_as_xyz
  1  'x, y, z'
loop_
 _atom_site_type_symbol
 _atom_site_label
 _atom_site_symmetry_multiplicity
 _atom_site_fract_x
 _atom_site_fract_y
 _atom_site_fract_z
 _atom_site_occupancy
  B  B0  1  0.92570378  0.42570378  0.85140757  1
  B  B1  1  0.07429622  0.57429622  0.14859243  1
  B  B2  1  0.34751919  0.34751919  0.69503839  1
  B  B3  1  0.65248081  0.65248081  0.30496161  1
  Fe  Fe4  1  0.81584035  0.81584035  0.63168070  1
  Fe  Fe5  1  0.18415965  0.18415965  0.36831930  1
  Mo  Mo6  1  0.50000000  0.00000000  0.00000000  1
