# generated using pymatgen
data_AlPt
_symmetry_space_group_name_H-M   'P 1'
_cell_length_a   4.91744923
_cell_length_b   4.91744923
_cell_length_c   4.91744923
_cell_angle_alpha   90.00000000
_cell_angle_beta   90.00000000
_cell_angle_gamma   90.00000000
_symmetry_Int_Tables_number   1
_chemical_formula_structural   AlPt
_chemical_formula_sum   'Al4 Pt4'
_cell_volume   118.91034914
_cell_formula_units_Z   4
loop_
 _symmetry_equiv_pos_site_id
 _symmetry_equiv_pos_as_xyz
  1  'x, y, z'
loop_
 _atom_site_type_symbol
 _atom_site_label
 _atom_site_symmetry_multiplicity
 _atom_site_fract_x
 _atom_site_fract_y
 _atom_site_fract_z
 _atom_site_occupancy
  Al  Al0  1  0.84401680  0.84401680  0.84401680  1
  Al  Al1  1  0.65598320  0.15598320  0.34401680  1
  Al  Al2  1  0.34401680  0.65598320  0.15598320  1
  Al  Al3  1  0.15598320  0.34401680  0.65598320  1
  Pt  Pt4  1  0.15486694  0.15486694  0.15486694  1
  Pt  Pt5  1  0.34513306  0.84513306  0.65486694  1
  Pt  Pt6  1  0.65486694  0.34513306  0.84513306  1
  Pt  Pt7  1  0.84513306  0.65486694  0.34513306  1
