# generated using pymatgen
data_Be3N2
_symmetry_space_group_name_H-M   'P 1'
_cell_length_a   7.05733655
_cell_length_b   7.05733655
_cell_length_c   7.05733655
_cell_angle_alpha   109.47122067
_cell_angle_beta   109.47122066
_cell_angle_gamma   109.47122059
_symmetry_Int_Tables_number   1
_chemical_formula_structural   Be3N2
_chemical_formula_sum   'Be24 N16'
_cell_volume   270.58305429
_cell_formula_units_Z   8
loop_
 _symmetry_equiv_pos_site_id
 _symmetry_equiv_pos_as_xyz
  1  'x, y, z'
loop_
 _atom_site_type_symbol
 _atom_site_label
 _atom_site_symmetry_multiplicity
 _atom_site_fract_x
 _atom_site_fract_y
 _atom_site_fract_z
 _atom_site_occupancy
  Be  Be0  1  0.52591741  0.76632252  0.53187601  1
  Be  Be1  1  0.99404140  0.96812399  0.73444651  1
  Be  Be2  1  0.25959489  0.76555349  0.73367748  1
  Be  Be3  1  0.50595860  0.24040511  0.97408259  1
  Be  Be4  1  0.96812399  0.73444651  0.99404140  1
  Be  Be5  1  0.73367748  0.25959489  0.76555349  1
  Be  Be6  1  0.24040511  0.97408259  0.50595860  1
  Be  Be7  1  0.53187601  0.52591741  0.76632252  1
  Be  Be8  1  0.76632252  0.53187601  0.52591741  1
  Be  Be9  1  0.73444651  0.99404140  0.96812399  1
  Be  Be10  1  0.76555349  0.73367748  0.25959489  1
  Be  Be11  1  0.97408259  0.50595860  0.24040511  1
  Be  Be12  1  0.47408259  0.23367748  0.46812399  1
  Be  Be13  1  0.00595860  0.03187601  0.26555349  1
  Be  Be14  1  0.74040511  0.23444651  0.26632252  1
  Be  Be15  1  0.49404140  0.75959489  0.02591741  1
  Be  Be16  1  0.03187601  0.26555349  0.00595860  1
  Be  Be17  1  0.26632252  0.74040511  0.23444651  1
  Be  Be18  1  0.75959489  0.02591741  0.49404140  1
  Be  Be19  1  0.46812399  0.47408259  0.23367748  1
  Be  Be20  1  0.23367748  0.46812399  0.47408259  1
  Be  Be21  1  0.26555349  0.00595860  0.03187601  1
  Be  Be22  1  0.23444651  0.26632252  0.74040511  1
  Be  Be23  1  0.02591741  0.49404140  0.75959489  1
  N  N24  1  0.25000000  0.22912444  0.97912444  1
  N  N25  1  0.27087556  0.52087556  0.75000000  1
  N  N26  1  0.52087556  0.75000000  0.27087556  1
  N  N27  1  0.22912444  0.97912444  0.25000000  1
  N  N28  1  0.97912444  0.25000000  0.22912444  1
  N  N29  1  0.75000000  0.27087556  0.52087556  1
  N  N30  1  0.75000000  0.77087556  0.02087556  1
  N  N31  1  0.72912444  0.47912444  0.25000000  1
  N  N32  1  0.47912444  0.25000000  0.72912444  1
  N  N33  1  0.77087556  0.02087556  0.75000000  1
  N  N34  1  0.02087556  0.75000000  0.77087556  1
  N  N35  1  0.25000000  0.72912444  0.47912444  1
  N  N36  1  0.50000000  0.50000000  0.50000000  1
  N  N37  1  0.00000000  0.00000000  0.50000000  1
  N  N38  1  0.50000000  0.00000000  0.00000000  1
  N  N39  1  0.00000000  0.50000000  0.00000000  1
