# generated using pymatgen
data_BaCuP
_symmetry_space_group_name_H-M   'P 1'
_cell_length_a   4.22061236
_cell_length_b   4.22061237
_cell_length_c   9.22467015
_cell_angle_alpha   90.00000000
_cell_angle_beta   90.00000000
_cell_angle_gamma   119.99999995
_symmetry_Int_Tables_number   1
_chemical_formula_structural   BaCuP
_chemical_formula_sum   'Ba2 Cu2 P2'
_cell_volume   142.30901453
_cell_formula_units_Z   2
loop_
 _symmetry_equiv_pos_site_id
 _symmetry_equiv_pos_as_xyz
  1  'x, y, z'
loop_
 _atom_site_type_symbol
 _atom_site_label
 _atom_site_symmetry_multiplicity
 _atom_site_fract_x
 _atom_site_fract_y
 _atom_site_fract_z
 _atom_site_occupancy
  P  P0  1  0.66666667  0.33333333  0.75000000  1
  P  P1  1  0.33333333  0.66666667  0.25000000  1
  Cu  Cu2  1  0.33333333  0.66666667  0.75000000  1
  Cu  Cu3  1  0.66666667  0.33333333  0.25000000  1
  Ba  Ba4  1  0.00000000  0.00000000  0.50000000  1
  Ba  Ba5  1  0.00000000  0.00000000  0.00000000  1
