# generated using pymatgen
data_Al21Pd8
_symmetry_space_group_name_H-M   'P 1'
_cell_length_a   10.70356172
_cell_length_b   10.70356172
_cell_length_c   10.70356171
_cell_angle_alpha   104.67800441
_cell_angle_beta   104.67800441
_cell_angle_gamma   119.55289184
_symmetry_Int_Tables_number   1
_chemical_formula_structural   Al21Pd8
_chemical_formula_sum   'Al42 Pd16'
_cell_volume   921.72750919
_cell_formula_units_Z   2
loop_
 _symmetry_equiv_pos_site_id
 _symmetry_equiv_pos_as_xyz
  1  'x, y, z'
loop_
 _atom_site_type_symbol
 _atom_site_label
 _atom_site_symmetry_multiplicity
 _atom_site_fract_x
 _atom_site_fract_y
 _atom_site_fract_z
 _atom_site_occupancy
  Al  Al0  1  0.12500000  0.37500000  0.75000000  1
  Al  Al1  1  0.87500000  0.62500000  0.25000000  1
  Al  Al2  1  0.61400989  0.72091871  0.78562204  1
  Al  Al3  1  0.22091871  0.93529666  0.10690881  1
  Al  Al4  1  0.32838785  0.11400989  0.39309119  1
  Al  Al5  1  0.43529666  0.82838785  0.71437796  1
  Al  Al6  1  0.38599011  0.27908129  0.21437796  1
  Al  Al7  1  0.77908129  0.06470334  0.89309119  1
  Al  Al8  1  0.67161215  0.88599011  0.60690881  1
  Al  Al9  1  0.56470334  0.17161215  0.28562204  1
  Al  Al10  1  0.66024038  0.07562202  0.08883442  1
  Al  Al11  1  0.57562202  0.98678760  0.41538164  1
  Al  Al12  1  0.07140596  0.16024038  0.08461836  1
  Al  Al13  1  0.48678760  0.57140596  0.41116558  1
  Al  Al14  1  0.33975962  0.92437798  0.91116558  1
  Al  Al15  1  0.42437798  0.01321240  0.58461836  1
  Al  Al16  1  0.92859404  0.83975962  0.91538164  1
  Al  Al17  1  0.51321240  0.42859404  0.58883442  1
  Al  Al18  1  0.93941643  0.18242254  0.32220982  1
  Al  Al19  1  0.68242254  0.86021272  0.24300611  1
  Al  Al20  1  0.11720661  0.43941643  0.25699389  1
  Al  Al21  1  0.36021272  0.61720661  0.17779018  1
  Al  Al22  1  0.06058357  0.81757746  0.67779018  1
  Al  Al23  1  0.31757746  0.13978728  0.75699389  1
  Al  Al24  1  0.88279339  0.56058357  0.74300611  1
  Al  Al25  1  0.63978728  0.38279339  0.82220982  1
  Al  Al26  1  0.15428702  0.17744809  0.54127320  1
  Al  Al27  1  0.67744809  0.63617489  0.02316107  1
  Al  Al28  1  0.11301381  0.65428702  0.47683893  1
  Al  Al29  1  0.13617489  0.61301381  0.95872680  1
  Al  Al30  1  0.84571298  0.82255191  0.45872680  1
  Al  Al31  1  0.32255191  0.36382511  0.97683893  1
  Al  Al32  1  0.88698619  0.34571298  0.52316107  1
  Al  Al33  1  0.86382511  0.38698619  0.04127320  1
  Al  Al34  1  0.27947901  0.50825504  0.58420877  1
  Al  Al35  1  0.00825504  0.92404627  0.22877603  1
  Al  Al36  1  0.19527025  0.77947901  0.27122397  1
  Al  Al37  1  0.42404627  0.69527025  0.91579123  1
  Al  Al38  1  0.72052099  0.49174496  0.41579123  1
  Al  Al39  1  0.99174496  0.07595373  0.77122397  1
  Al  Al40  1  0.80472975  0.22052099  0.72877603  1
  Al  Al41  1  0.57595373  0.30472975  0.08420877  1
  Pd  Pd42  1  0.85017554  0.37665889  0.28749822  1
  Pd  Pd43  1  0.87665889  0.08916068  0.52648336  1
  Pd  Pd44  1  0.06267732  0.35017554  0.97351664  1
  Pd  Pd45  1  0.58916068  0.56267732  0.21250178  1
  Pd  Pd46  1  0.14982446  0.62334111  0.71250178  1
  Pd  Pd47  1  0.12334111  0.91083932  0.47351664  1
  Pd  Pd48  1  0.93732268  0.64982446  0.02648336  1
  Pd  Pd49  1  0.41083932  0.43732268  0.78749822  1
  Pd  Pd50  1  0.20395347  0.06801724  0.93603854  1
  Pd  Pd51  1  0.56801724  0.13197869  0.86406376  1
  Pd  Pd52  1  0.76791493  0.70395347  0.63593624  1
  Pd  Pd53  1  0.63197869  0.26791493  0.56396146  1
  Pd  Pd54  1  0.79604653  0.93198276  0.06396146  1
  Pd  Pd55  1  0.43198276  0.86802131  0.13593624  1
  Pd  Pd56  1  0.23208507  0.29604653  0.36406376  1
  Pd  Pd57  1  0.36802131  0.73208507  0.43603854  1
