# generated using pymatgen
data_ZrO2
_symmetry_space_group_name_H-M   'P 1'
_cell_length_a   5.14991256
_cell_length_b   5.14975594
_cell_length_c   5.14986589
_cell_angle_alpha   90.00000000
_cell_angle_beta   90.01372618
_cell_angle_gamma   90.00000000
_symmetry_Int_Tables_number   1
_chemical_formula_structural   ZrO2
_chemical_formula_sum   'Zr4 O8'
_cell_volume   136.57852241
_cell_formula_units_Z   4
loop_
 _symmetry_equiv_pos_site_id
 _symmetry_equiv_pos_as_xyz
  1  'x, y, z'
loop_
 _atom_site_type_symbol
 _atom_site_label
 _atom_site_symmetry_multiplicity
 _atom_site_fract_x
 _atom_site_fract_y
 _atom_site_fract_z
 _atom_site_occupancy
  O  O0  1  0.25004120  0.25003291  0.24999456  1
  O  O1  1  0.74995880  0.75003291  0.25000544  1
  O  O2  1  0.74995880  0.74996709  0.75000544  1
  O  O3  1  0.25004120  0.24996709  0.74999456  1
  O  O4  1  0.24995893  0.74996346  0.25006610  1
  O  O5  1  0.75004107  0.24996346  0.24993390  1
  O  O6  1  0.75004107  0.25003654  0.74993390  1
  O  O7  1  0.24995893  0.75003654  0.75006610  1
  Zr  Zr8  1  0.00000000  0.00000000  0.00000000  1
  Zr  Zr9  1  0.00000000  0.50000000  0.50000000  1
  Zr  Zr10  1  0.50000000  0.00000000  0.50000000  1
  Zr  Zr11  1  0.50000000  0.50000000  0.00000000  1
