# generated using pymatgen
data_Y2Zn17
_symmetry_space_group_name_H-M   'P 1'
_cell_length_a   6.80347202
_cell_length_b   6.80347202
_cell_length_c   6.80347203
_cell_angle_alpha   82.52193684
_cell_angle_beta   82.52193690
_cell_angle_gamma   82.52193681
_symmetry_Int_Tables_number   1
_chemical_formula_structural   Y2Zn17
_chemical_formula_sum   'Y2 Zn17'
_cell_volume   307.52021806
_cell_formula_units_Z   1
loop_
 _symmetry_equiv_pos_site_id
 _symmetry_equiv_pos_as_xyz
  1  'x, y, z'
loop_
 _atom_site_type_symbol
 _atom_site_label
 _atom_site_symmetry_multiplicity
 _atom_site_fract_x
 _atom_site_fract_y
 _atom_site_fract_z
 _atom_site_occupancy
  Zn  Zn0  1  0.35174735  0.35174735  0.83813152  1
  Zn  Zn1  1  0.35174735  0.83813152  0.35174735  1
  Zn  Zn2  1  0.09979845  0.09979845  0.09979845  1
  Zn  Zn3  1  0.90020155  0.90020155  0.90020155  1
  Zn  Zn4  1  0.00000000  0.00000000  0.50000000  1
  Zn  Zn5  1  0.50000000  0.00000000  0.00000000  1
  Zn  Zn6  1  0.00000000  0.50000000  0.00000000  1
  Zn  Zn7  1  0.70309935  0.29690065  0.00000000  1
  Zn  Zn8  1  0.00000000  0.70309935  0.29690065  1
  Zn  Zn9  1  0.29690065  0.00000000  0.70309935  1
  Zn  Zn10  1  0.29690065  0.70309935  0.00000000  1
  Zn  Zn11  1  0.00000000  0.29690065  0.70309935  1
  Zn  Zn12  1  0.70309935  0.00000000  0.29690065  1
  Zn  Zn13  1  0.64825265  0.16186848  0.64825265  1
  Zn  Zn14  1  0.64825265  0.64825265  0.16186848  1
  Zn  Zn15  1  0.16186848  0.64825265  0.64825265  1
  Zn  Zn16  1  0.83813152  0.35174735  0.35174735  1
  Y  Y17  1  0.66509902  0.66509902  0.66509902  1
  Y  Y18  1  0.33490098  0.33490098  0.33490098  1
