# generated using pymatgen
data_HfSiPt
_symmetry_space_group_name_H-M   'P 1'
_cell_length_a   3.90850381
_cell_length_b   6.59483400
_cell_length_c   7.57696669
_cell_angle_alpha   90.00000000
_cell_angle_beta   90.00000000
_cell_angle_gamma   90.00000000
_symmetry_Int_Tables_number   1
_chemical_formula_structural   HfSiPt
_chemical_formula_sum   'Hf4 Si4 Pt4'
_cell_volume   195.30339192
_cell_formula_units_Z   4
loop_
 _symmetry_equiv_pos_site_id
 _symmetry_equiv_pos_as_xyz
  1  'x, y, z'
loop_
 _atom_site_type_symbol
 _atom_site_label
 _atom_site_symmetry_multiplicity
 _atom_site_fract_x
 _atom_site_fract_y
 _atom_site_fract_z
 _atom_site_occupancy
  Si  Si0  1  0.25000000  0.26041771  0.87754170  1
  Si  Si1  1  0.25000000  0.76041771  0.62245830  1
  Si  Si2  1  0.75000000  0.73958229  0.12245830  1
  Si  Si3  1  0.75000000  0.23958229  0.37754170  1
  Hf  Hf4  1  0.75000000  0.47433054  0.67711482  1
  Hf  Hf5  1  0.25000000  0.02566946  0.17711482  1
  Hf  Hf6  1  0.75000000  0.97433054  0.82288518  1
  Hf  Hf7  1  0.25000000  0.52566946  0.32288518  1
  Pt  Pt8  1  0.25000000  0.64571937  0.93447681  1
  Pt  Pt9  1  0.25000000  0.14571937  0.56552319  1
  Pt  Pt10  1  0.75000000  0.85428063  0.43447681  1
  Pt  Pt11  1  0.75000000  0.35428063  0.06552319  1
