# generated using pymatgen
data_Hf3(CuSi)4
_symmetry_space_group_name_H-M   'P 1'
_cell_length_a   3.91900953
_cell_length_b   6.37316449
_cell_length_c   7.50750679
_cell_angle_alpha   115.11641175
_cell_angle_beta   105.12976663
_cell_angle_gamma   89.99999998
_symmetry_Int_Tables_number   1
_chemical_formula_structural   Hf3(CuSi)4
_chemical_formula_sum   'Hf3 Si4 Cu4'
_cell_volume   162.57453054
_cell_formula_units_Z   1
loop_
 _symmetry_equiv_pos_site_id
 _symmetry_equiv_pos_as_xyz
  1  'x, y, z'
loop_
 _atom_site_type_symbol
 _atom_site_label
 _atom_site_symmetry_multiplicity
 _atom_site_fract_x
 _atom_site_fract_y
 _atom_site_fract_z
 _atom_site_occupancy
  Si  Si0  1  0.50001029  0.80826640  0.00002058  1
  Si  Si1  1  0.49998971  0.19173360  0.99997942  1
  Si  Si2  1  0.78422840  0.28425335  0.56845681  1
  Si  Si3  1  0.21577160  0.71574665  0.43154319  1
  Cu  Cu4  1  0.32980445  0.52335813  0.65960890  1
  Cu  Cu5  1  0.67020167  0.86360691  0.34040335  1
  Cu  Cu6  1  0.32979833  0.13639309  0.65959665  1
  Cu  Cu7  1  0.67019555  0.47664187  0.34039110  1
  Hf  Hf8  1  0.87664729  0.87667801  0.75329457  1
  Hf  Hf9  1  0.12335271  0.12332199  0.24670543  1
  Hf  Hf10  1  0.00000000  0.50000000  0.00000000  1
