# generated using pymatgen
data_CdSb
_symmetry_space_group_name_H-M   'P 1'
_cell_length_a   6.59965947
_cell_length_b   8.42698317
_cell_length_c   8.74758238
_cell_angle_alpha   90.00000000
_cell_angle_beta   90.00000000
_cell_angle_gamma   90.00000000
_symmetry_Int_Tables_number   1
_chemical_formula_structural   CdSb
_chemical_formula_sum   'Cd8 Sb8'
_cell_volume   486.49871225
_cell_formula_units_Z   8
loop_
 _symmetry_equiv_pos_site_id
 _symmetry_equiv_pos_as_xyz
  1  'x, y, z'
loop_
 _atom_site_type_symbol
 _atom_site_label
 _atom_site_symmetry_multiplicity
 _atom_site_fract_x
 _atom_site_fract_y
 _atom_site_fract_z
 _atom_site_occupancy
  Cd  Cd0  1  0.45346083  0.12129675  0.86695604  1
  Cd  Cd1  1  0.95346083  0.37870325  0.13304396  1
  Cd  Cd2  1  0.54653917  0.62129675  0.63304396  1
  Cd  Cd3  1  0.04653917  0.87870325  0.36695604  1
  Cd  Cd4  1  0.54653917  0.87870325  0.13304396  1
  Cd  Cd5  1  0.04653917  0.62129675  0.86695604  1
  Cd  Cd6  1  0.45346083  0.37870325  0.36695604  1
  Cd  Cd7  1  0.95346083  0.12129675  0.63304396  1
  Sb  Sb8  1  0.13867040  0.07303483  0.10367220  1
  Sb  Sb9  1  0.63867040  0.42696517  0.89632780  1
  Sb  Sb10  1  0.86132960  0.57303483  0.39632780  1
  Sb  Sb11  1  0.36132960  0.92696517  0.60367220  1
  Sb  Sb12  1  0.86132960  0.92696517  0.89632780  1
  Sb  Sb13  1  0.36132960  0.57303483  0.10367220  1
  Sb  Sb14  1  0.13867040  0.42696517  0.60367220  1
  Sb  Sb15  1  0.63867040  0.07303483  0.39632780  1
