# generated using pymatgen
data_Li3B7O12
_symmetry_space_group_name_H-M   'P 1'
_cell_length_a   6.56194878
_cell_length_b   7.99006267
_cell_length_c   8.63073470
_cell_angle_alpha   91.30905387
_cell_angle_beta   104.72996531
_cell_angle_gamma   99.10114614
_symmetry_Int_Tables_number   1
_chemical_formula_structural   Li3B7O12
_chemical_formula_sum   'Li6 B14 O24'
_cell_volume   431.18791445
_cell_formula_units_Z   2
loop_
 _symmetry_equiv_pos_site_id
 _symmetry_equiv_pos_as_xyz
  1  'x, y, z'
loop_
 _atom_site_type_symbol
 _atom_site_label
 _atom_site_symmetry_multiplicity
 _atom_site_fract_x
 _atom_site_fract_y
 _atom_site_fract_z
 _atom_site_occupancy
  Li  Li0  1  0.77868764  0.19677931  0.96685400  1
  Li  Li1  1  0.22131236  0.80322069  0.03314600  1
  Li  Li2  1  0.48265732  0.92217614  0.69575023  1
  Li  Li3  1  0.51734268  0.07782386  0.30424977  1
  Li  Li4  1  0.01090435  0.30509984  0.68267224  1
  Li  Li5  1  0.98909565  0.69490016  0.31732776  1
  B  B6  1  0.75446639  0.87039128  0.04139764  1
  B  B7  1  0.24553361  0.12960872  0.95860236  1
  B  B8  1  0.78467059  0.85941030  0.50938586  1
  B  B9  1  0.21532941  0.14058970  0.49061414  1
  B  B10  1  0.43801524  0.27310109  0.77095498  1
  B  B11  1  0.56198476  0.72689891  0.22904502  1
  B  B12  1  0.04156319  0.70738013  0.69102939  1
  B  B13  1  0.95843681  0.29261987  0.30897061  1
  B  B14  1  0.38318914  0.57103298  0.71441727  1
  B  B15  1  0.61681086  0.42896702  0.28558273  1
  B  B16  1  0.90528458  0.95965656  0.79868375  1
  B  B17  1  0.09471542  0.04034344  0.20131625  1
  B  B18  1  0.73057994  0.49558666  0.73077562  1
  B  B19  1  0.26942006  0.50441334  0.26922438  1
  O  O20  1  0.06676951  0.46726309  0.28622384  1
  O  O21  1  0.93323049  0.53273691  0.71377616  1
  O  O22  1  0.63996724  0.86145064  0.36248197  1
  O  O23  1  0.36003276  0.13854936  0.63751803  1
  O  O24  1  0.03484837  0.82663665  0.81976999  1
  O  O25  1  0.96515163  0.17336335  0.18023001  1
  O  O26  1  0.04724257  0.13075740  0.85015663  1
  O  O27  1  0.95275743  0.86924260  0.14984337  1
  O  O28  1  0.26905636  0.70141791  0.69517301  1
  O  O29  1  0.73094364  0.29858209  0.30482699  1
  O  O30  1  0.77227073  0.96600334  0.63347881  1
  O  O31  1  0.22772927  0.03399666  0.36652119  1
  O  O32  1  0.94040845  0.75910896  0.53015667  1
  O  O33  1  0.05959155  0.24089104  0.46984333  1
  O  O34  1  0.73959561  0.94169157  0.89514903  1
  O  O35  1  0.26040439  0.05830843  0.10485097  1
  O  O36  1  0.31235554  0.41130325  0.75222228  1
  O  O37  1  0.68764446  0.58869675  0.24777772  1
  O  O38  1  0.43415489  0.19458740  0.92362836  1
  O  O39  1  0.56584511  0.80541260  0.07637164  1
  O  O40  1  0.66811034  0.33893194  0.78411746  1
  O  O41  1  0.33188966  0.66106806  0.21588254  1
  O  O42  1  0.58908821  0.60969725  0.69256300  1
  O  O43  1  0.41091179  0.39030275  0.30743700  1
