# generated using pymatgen
data_Ge2Pt
_symmetry_space_group_name_H-M   'P 1'
_cell_length_a   2.98337315
_cell_length_b   5.84273588
_cell_length_c   6.28332385
_cell_angle_alpha   90.00000000
_cell_angle_beta   90.00000000
_cell_angle_gamma   90.00000000
_symmetry_Int_Tables_number   1
_chemical_formula_structural   Ge2Pt
_chemical_formula_sum   'Ge4 Pt2'
_cell_volume   109.52500349
_cell_formula_units_Z   2
loop_
 _symmetry_equiv_pos_site_id
 _symmetry_equiv_pos_as_xyz
  1  'x, y, z'
loop_
 _atom_site_type_symbol
 _atom_site_label
 _atom_site_symmetry_multiplicity
 _atom_site_fract_x
 _atom_site_fract_y
 _atom_site_fract_z
 _atom_site_occupancy
  Ge  Ge0  1  0.00000000  0.83201578  0.37248553  1
  Ge  Ge1  1  0.00000000  0.16798422  0.62751447  1
  Ge  Ge2  1  0.50000000  0.33201578  0.12751447  1
  Ge  Ge3  1  0.50000000  0.66798422  0.87248553  1
  Pt  Pt4  1  0.00000000  0.00000000  0.00000000  1
  Pt  Pt5  1  0.50000000  0.50000000  0.50000000  1
