# generated using pymatgen
data_Hf(CuP)2
_symmetry_space_group_name_H-M   'P 1'
_cell_length_a   3.80306953
_cell_length_b   3.80306954
_cell_length_c   6.13511311
_cell_angle_alpha   90.00000000
_cell_angle_beta   90.00000000
_cell_angle_gamma   120.00000003
_symmetry_Int_Tables_number   1
_chemical_formula_structural   Hf(CuP)2
_chemical_formula_sum   'Hf1 Cu2 P2'
_cell_volume   76.84608332
_cell_formula_units_Z   1
loop_
 _symmetry_equiv_pos_site_id
 _symmetry_equiv_pos_as_xyz
  1  'x, y, z'
loop_
 _atom_site_type_symbol
 _atom_site_label
 _atom_site_symmetry_multiplicity
 _atom_site_fract_x
 _atom_site_fract_y
 _atom_site_fract_z
 _atom_site_occupancy
  P  P0  1  0.66666667  0.33333333  0.75391284  1
  P  P1  1  0.33333333  0.66666667  0.24608716  1
  Cu  Cu2  1  0.33333333  0.66666667  0.63785099  1
  Cu  Cu3  1  0.66666667  0.33333333  0.36214901  1
  Hf  Hf4  1  0.00000000  0.00000000  0.00000000  1
