# generated using pymatgen
data_Zn13Rh
_symmetry_space_group_name_H-M   'P 1'
_cell_length_a   5.15244871
_cell_length_b   6.67815995
_cell_length_c   6.67815995
_cell_angle_alpha   69.40819554
_cell_angle_beta   80.39565135
_cell_angle_gamma   80.39565148
_symmetry_Int_Tables_number   1
_chemical_formula_structural   Zn13Rh
_chemical_formula_sum   'Zn13 Rh1'
_cell_volume   210.63035249
_cell_formula_units_Z   1
loop_
 _symmetry_equiv_pos_site_id
 _symmetry_equiv_pos_as_xyz
  1  'x, y, z'
loop_
 _atom_site_type_symbol
 _atom_site_label
 _atom_site_symmetry_multiplicity
 _atom_site_fract_x
 _atom_site_fract_y
 _atom_site_fract_z
 _atom_site_occupancy
  Zn  Zn0  1  0.00000000  0.00000000  0.00000000  1
  Zn  Zn1  1  0.67928898  0.38160898  0.77848344  1
  Zn  Zn2  1  0.32071102  0.22151656  0.61839102  1
  Zn  Zn3  1  0.32071102  0.61839102  0.22151656  1
  Zn  Zn4  1  0.67928898  0.77848344  0.38160898  1
  Zn  Zn5  1  0.80218400  0.63861655  0.00273067  1
  Zn  Zn6  1  0.19781600  0.99726933  0.36138345  1
  Zn  Zn7  1  0.19781600  0.36138345  0.99726933  1
  Zn  Zn8  1  0.80218400  0.00273067  0.63861655  1
  Zn  Zn9  1  0.63058205  0.22394200  0.22394200  1
  Zn  Zn10  1  0.36941795  0.77605800  0.77605800  1
  Zn  Zn11  1  0.92866921  0.38753448  0.38753448  1
  Zn  Zn12  1  0.07133079  0.61246552  0.61246552  1
  Rh  Rh13  1  0.50000000  0.00000000  0.00000000  1
