# generated using pymatgen
data_Mg23Al30
_symmetry_space_group_name_H-M   'P 1'
_cell_length_a   10.32930607
_cell_length_b   10.32930607
_cell_length_c   10.32930607
_cell_angle_alpha   76.52536206
_cell_angle_beta   76.52536208
_cell_angle_gamma   76.52536210
_symmetry_Int_Tables_number   1
_chemical_formula_structural   Mg23Al30
_chemical_formula_sum   'Mg23 Al30'
_cell_volume   1023.46208735
_cell_formula_units_Z   1
loop_
 _symmetry_equiv_pos_site_id
 _symmetry_equiv_pos_as_xyz
  1  'x, y, z'
loop_
 _atom_site_type_symbol
 _atom_site_label
 _atom_site_symmetry_multiplicity
 _atom_site_fract_x
 _atom_site_fract_y
 _atom_site_fract_z
 _atom_site_occupancy
  Mg  Mg0  1  0.56955309  0.19132900  0.61829351  1
  Mg  Mg1  1  0.19132900  0.61829351  0.56955309  1
  Mg  Mg2  1  0.61829351  0.56955309  0.19132900  1
  Mg  Mg3  1  0.43044691  0.80867100  0.38170649  1
  Mg  Mg4  1  0.80867100  0.38170649  0.43044691  1
  Mg  Mg5  1  0.38170649  0.43044691  0.80867100  1
  Mg  Mg6  1  0.34832942  0.05696647  0.54876635  1
  Mg  Mg7  1  0.05696647  0.54876635  0.34832942  1
  Mg  Mg8  1  0.54876635  0.34832942  0.05696647  1
  Mg  Mg9  1  0.65167058  0.94303353  0.45123365  1
  Mg  Mg10  1  0.94303353  0.45123365  0.65167058  1
  Mg  Mg11  1  0.45123365  0.65167058  0.94303353  1
  Mg  Mg12  1  0.09473347  0.91882252  0.61247238  1
  Mg  Mg13  1  0.91882252  0.61247238  0.09473347  1
  Mg  Mg14  1  0.61247238  0.09473347  0.91882252  1
  Mg  Mg15  1  0.90526653  0.08117748  0.38752762  1
  Mg  Mg16  1  0.08117748  0.38752762  0.90526653  1
  Mg  Mg17  1  0.38752762  0.90526653  0.08117748  1
  Mg  Mg18  1  0.92282198  0.92282198  0.92282198  1
  Mg  Mg19  1  0.07717802  0.07717802  0.07717802  1
  Mg  Mg20  1  0.66188376  0.66188376  0.66188376  1
  Mg  Mg21  1  0.33811624  0.33811624  0.33811624  1
  Mg  Mg22  1  0.50000000  0.50000000  0.50000000  1
  Al  Al23  1  0.91515378  0.75987275  0.50879385  1
  Al  Al24  1  0.25649776  0.33098769  0.62599949  1
  Al  Al25  1  0.62599949  0.25649776  0.33098769  1
  Al  Al26  1  0.33098769  0.62599949  0.25649776  1
  Al  Al27  1  0.74350224  0.66901231  0.37400051  1
  Al  Al28  1  0.37400051  0.74350224  0.66901231  1
  Al  Al29  1  0.66901231  0.37400051  0.74350224  1
  Al  Al30  1  0.75987275  0.50879385  0.91515378  1
  Al  Al31  1  0.50879385  0.91515378  0.75987275  1
  Al  Al32  1  0.08484622  0.24012725  0.49120615  1
  Al  Al33  1  0.24012725  0.49120615  0.08484622  1
  Al  Al34  1  0.49120615  0.08484622  0.24012725  1
  Al  Al35  1  0.78169626  0.93035397  0.68223796  1
  Al  Al36  1  0.93035397  0.68223796  0.78169626  1
  Al  Al37  1  0.68223796  0.78169626  0.93035397  1
  Al  Al38  1  0.21830374  0.06964603  0.31776204  1
  Al  Al39  1  0.06964603  0.31776204  0.21830374  1
  Al  Al40  1  0.31776204  0.21830374  0.06964603  1
  Al  Al41  1  0.85992057  0.16124872  0.66535150  1
  Al  Al42  1  0.16124872  0.66535150  0.85992057  1
  Al  Al43  1  0.66535150  0.85992057  0.16124872  1
  Al  Al44  1  0.14007943  0.83875128  0.33464850  1
  Al  Al45  1  0.83875128  0.33464850  0.14007943  1
  Al  Al46  1  0.33464850  0.14007943  0.83875128  1
  Al  Al47  1  0.85086124  0.23501494  0.90886027  1
  Al  Al48  1  0.23501494  0.90886027  0.85086124  1
  Al  Al49  1  0.90886027  0.85086124  0.23501494  1
  Al  Al50  1  0.14913876  0.76498506  0.09113973  1
  Al  Al51  1  0.76498506  0.09113973  0.14913876  1
  Al  Al52  1  0.09113973  0.14913876  0.76498506  1
