# generated using pymatgen
data_HgO
_symmetry_space_group_name_H-M   'P 1'
_cell_length_a   3.73885212
_cell_length_b   5.79659488
_cell_length_c   6.73969095
_cell_angle_alpha   90.00000000
_cell_angle_beta   90.00000000
_cell_angle_gamma   90.00000000
_symmetry_Int_Tables_number   1
_chemical_formula_structural   HgO
_chemical_formula_sum   'Hg4 O4'
_cell_volume   146.06670060
_cell_formula_units_Z   4
loop_
 _symmetry_equiv_pos_site_id
 _symmetry_equiv_pos_as_xyz
  1  'x, y, z'
loop_
 _atom_site_type_symbol
 _atom_site_label
 _atom_site_symmetry_multiplicity
 _atom_site_fract_x
 _atom_site_fract_y
 _atom_site_fract_z
 _atom_site_occupancy
  O  O0  1  0.06904472  0.75000000  0.13776727  1
  O  O1  1  0.56904472  0.25000000  0.36223273  1
  O  O2  1  0.93095528  0.25000000  0.86223273  1
  O  O3  1  0.43095528  0.75000000  0.63776727  1
  Hg  Hg4  1  0.74292175  0.75000000  0.38473908  1
  Hg  Hg5  1  0.24292175  0.25000000  0.11526092  1
  Hg  Hg6  1  0.25707825  0.25000000  0.61526092  1
  Hg  Hg7  1  0.75707825  0.75000000  0.88473908  1
