# generated using pymatgen
data_Li12Si7
_symmetry_space_group_name_H-M   'P 1'
_cell_length_a   8.53123776
_cell_length_b   14.31268194
_cell_length_c   19.62266159
_cell_angle_alpha   90.00000000
_cell_angle_beta   90.00000000
_cell_angle_gamma   90.00000000
_symmetry_Int_Tables_number   1
_chemical_formula_structural   Li12Si7
_chemical_formula_sum   'Li96 Si56'
_cell_volume   2396.02298624
_cell_formula_units_Z   8
loop_
 _symmetry_equiv_pos_site_id
 _symmetry_equiv_pos_as_xyz
  1  'x, y, z'
loop_
 _atom_site_type_symbol
 _atom_site_label
 _atom_site_symmetry_multiplicity
 _atom_site_fract_x
 _atom_site_fract_y
 _atom_site_fract_z
 _atom_site_occupancy
  Li  Li0  1  0.66175142  0.83414790  0.75000000  1
  Li  Li1  1  0.16175142  0.66585210  0.75000000  1
  Li  Li2  1  0.83824858  0.33414790  0.25000000  1
  Li  Li3  1  0.33824858  0.16585210  0.25000000  1
  Li  Li4  1  0.61307957  0.63119034  0.75000000  1
  Li  Li5  1  0.11307957  0.86880966  0.75000000  1
  Li  Li6  1  0.88692043  0.13119034  0.25000000  1
  Li  Li7  1  0.38692043  0.36880966  0.25000000  1
  Li  Li8  1  0.49627905  0.47243377  0.62499999  1
  Li  Li9  1  0.99627905  0.02756623  0.87500001  1
  Li  Li10  1  0.00372095  0.97243377  0.37500001  1
  Li  Li11  1  0.50372095  0.52756623  0.12499999  1
  Li  Li12  1  0.50372095  0.52756623  0.37500001  1
  Li  Li13  1  0.00372095  0.97243377  0.12499999  1
  Li  Li14  1  0.99627905  0.02756623  0.62499999  1
  Li  Li15  1  0.49627905  0.47243377  0.87500001  1
  Li  Li16  1  0.84244090  0.49491113  0.61165503  1
  Li  Li17  1  0.34244090  0.00508887  0.88834497  1
  Li  Li18  1  0.65755910  0.99491113  0.38834497  1
  Li  Li19  1  0.15755910  0.50508887  0.11165503  1
  Li  Li20  1  0.15755910  0.50508887  0.38834497  1
  Li  Li21  1  0.65755910  0.99491113  0.11165503  1
  Li  Li22  1  0.34244090  0.00508887  0.61165503  1
  Li  Li23  1  0.84244090  0.49491113  0.88834497  1
  Li  Li24  1  0.87710548  0.65958912  0.83435334  1
  Li  Li25  1  0.37710548  0.84041088  0.66564666  1
  Li  Li26  1  0.62289452  0.15958912  0.16564666  1
  Li  Li27  1  0.12289452  0.34041088  0.33435334  1
  Li  Li28  1  0.12289452  0.34041088  0.16564666  1
  Li  Li29  1  0.62289452  0.15958912  0.33435334  1
  Li  Li30  1  0.37710548  0.84041088  0.83435334  1
  Li  Li31  1  0.87710548  0.65958912  0.66564666  1
  Li  Li32  1  0.37043937  0.93431874  0.02780281  1
  Li  Li33  1  0.87043937  0.56568126  0.47219719  1
  Li  Li34  1  0.12956063  0.43431874  0.97219719  1
  Li  Li35  1  0.62956063  0.06568126  0.52780281  1
  Li  Li36  1  0.62956063  0.06568126  0.97219719  1
  Li  Li37  1  0.12956063  0.43431874  0.52780281  1
  Li  Li38  1  0.87043937  0.56568126  0.02780281  1
  Li  Li39  1  0.37043937  0.93431874  0.47219719  1
  Li  Li40  1  0.63043195  0.26348363  0.88730122  1
  Li  Li41  1  0.13043195  0.23651637  0.61269878  1
  Li  Li42  1  0.86956805  0.76348363  0.11269878  1
  Li  Li43  1  0.36956805  0.73651637  0.38730122  1
  Li  Li44  1  0.36956805  0.73651637  0.11269878  1
  Li  Li45  1  0.86956805  0.76348363  0.38730122  1
  Li  Li46  1  0.13043195  0.23651637  0.88730122  1
  Li  Li47  1  0.63043195  0.26348363  0.61269878  1
  Li  Li48  1  0.36686023  0.56735809  0.00485439  1
  Li  Li49  1  0.86686023  0.93264191  0.49514561  1
  Li  Li50  1  0.13313977  0.06735809  0.99514561  1
  Li  Li51  1  0.63313977  0.43264191  0.50485439  1
  Li  Li52  1  0.63313977  0.43264191  0.99514561  1
  Li  Li53  1  0.13313977  0.06735809  0.50485439  1
  Li  Li54  1  0.86686023  0.93264191  0.00485439  1
  Li  Li55  1  0.36686023  0.56735809  0.49514561  1
  Li  Li56  1  0.37182153  0.63883866  0.85493744  1
  Li  Li57  1  0.87182153  0.86116134  0.64506256  1
  Li  Li58  1  0.12817847  0.13883866  0.14506256  1
  Li  Li59  1  0.62817847  0.36116134  0.35493744  1
  Li  Li60  1  0.62817847  0.36116134  0.14506256  1
  Li  Li61  1  0.12817847  0.13883866  0.35493744  1
  Li  Li62  1  0.87182153  0.86116134  0.85493744  1
  Li  Li63  1  0.37182153  0.63883866  0.64506256  1
  Li  Li64  1  0.87049122  0.74366777  0.96843032  1
  Li  Li65  1  0.37049122  0.75633223  0.53156968  1
  Li  Li66  1  0.62950878  0.24366777  0.03156968  1
  Li  Li67  1  0.12950878  0.25633223  0.46843032  1
  Li  Li68  1  0.12950878  0.25633223  0.03156968  1
  Li  Li69  1  0.62950878  0.24366777  0.46843032  1
  Li  Li70  1  0.37049122  0.75633223  0.96843032  1
  Li  Li71  1  0.87049122  0.74366777  0.53156968  1
  Li  Li72  1  0.13791452  0.47784918  0.67136420  1
  Li  Li73  1  0.63791452  0.02215082  0.82863580  1
  Li  Li74  1  0.36208548  0.97784918  0.32863580  1
  Li  Li75  1  0.86208548  0.52215082  0.17136420  1
  Li  Li76  1  0.86208548  0.52215082  0.32863580  1
  Li  Li77  1  0.36208548  0.97784918  0.17136420  1
  Li  Li78  1  0.63791452  0.02215082  0.67136420  1
  Li  Li79  1  0.13791452  0.47784918  0.82863580  1
  Li  Li80  1  0.86264950  0.16256763  0.68890678  1
  Li  Li81  1  0.36264950  0.33743237  0.81109322  1
  Li  Li82  1  0.63735050  0.66256763  0.31109322  1
  Li  Li83  1  0.13735050  0.83743237  0.18890678  1
  Li  Li84  1  0.13735050  0.83743237  0.31109322  1
  Li  Li85  1  0.63735050  0.66256763  0.18890678  1
  Li  Li86  1  0.36264950  0.33743237  0.68890678  1
  Li  Li87  1  0.86264950  0.16256763  0.81109322  1
  Li  Li88  1  0.60881914  0.84337232  0.18719424  1
  Li  Li89  1  0.10881914  0.65662768  0.31280576  1
  Li  Li90  1  0.89118086  0.34337232  0.81280576  1
  Li  Li91  1  0.39118086  0.15662768  0.68719424  1
  Li  Li92  1  0.39118086  0.15662768  0.81280576  1
  Li  Li93  1  0.89118086  0.34337232  0.68719424  1
  Li  Li94  1  0.10881914  0.65662768  0.18719424  1
  Li  Li95  1  0.60881914  0.84337232  0.31280576  1
  Si  Si96  1  0.61565653  0.49219227  0.25000000  1
  Si  Si97  1  0.11565653  0.00780773  0.25000000  1
  Si  Si98  1  0.88434347  0.99219227  0.75000000  1
  Si  Si99  1  0.38434347  0.50780773  0.75000000  1
  Si  Si100  1  0.12227570  0.48803930  0.25000000  1
  Si  Si101  1  0.62227570  0.01196070  0.25000000  1
  Si  Si102  1  0.37772430  0.98803930  0.75000000  1
  Si  Si103  1  0.87772430  0.51196070  0.75000000  1
  Si  Si104  1  0.37178863  0.73546094  0.25000000  1
  Si  Si105  1  0.87178863  0.76453906  0.25000000  1
  Si  Si106  1  0.12821137  0.23546094  0.75000000  1
  Si  Si107  1  0.62821137  0.26453906  0.75000000  1
  Si  Si108  1  0.36702365  0.56955780  0.25000000  1
  Si  Si109  1  0.86702365  0.93044220  0.25000000  1
  Si  Si110  1  0.13297635  0.06955780  0.75000000  1
  Si  Si111  1  0.63297635  0.43044220  0.75000000  1
  Si  Si112  1  0.12387607  0.75194977  0.63215681  1
  Si  Si113  1  0.62387607  0.74805023  0.86784319  1
  Si  Si114  1  0.37612393  0.25194977  0.36784319  1
  Si  Si115  1  0.87612393  0.24805023  0.13215681  1
  Si  Si116  1  0.87612393  0.24805023  0.36784319  1
  Si  Si117  1  0.37612393  0.25194977  0.13215681  1
  Si  Si118  1  0.62387607  0.74805023  0.63215681  1
  Si  Si119  1  0.12387607  0.75194977  0.86784319  1
  Si  Si120  1  0.10653059  0.61401462  0.56501654  1
  Si  Si121  1  0.60653059  0.88598538  0.93498346  1
  Si  Si122  1  0.39346941  0.11401462  0.43498346  1
  Si  Si123  1  0.89346941  0.38598538  0.06501654  1
  Si  Si124  1  0.89346941  0.38598538  0.43498346  1
  Si  Si125  1  0.39346941  0.11401462  0.06501654  1
  Si  Si126  1  0.60653059  0.88598538  0.56501654  1
  Si  Si127  1  0.10653059  0.61401462  0.93498346  1
  Si  Si128  1  0.11776732  0.66644513  0.44939065  1
  Si  Si129  1  0.61776732  0.83355487  0.05060935  1
  Si  Si130  1  0.38223268  0.16644513  0.55060935  1
  Si  Si131  1  0.88223268  0.33355487  0.94939065  1
  Si  Si132  1  0.88223268  0.33355487  0.55060935  1
  Si  Si133  1  0.38223268  0.16644513  0.94939065  1
  Si  Si134  1  0.61776732  0.83355487  0.44939065  1
  Si  Si135  1  0.11776732  0.66644513  0.05060935  1
  Si  Si136  1  0.11992214  0.83141585  0.44685793  1
  Si  Si137  1  0.61992214  0.66858415  0.05314207  1
  Si  Si138  1  0.38007786  0.33141585  0.55314207  1
  Si  Si139  1  0.88007786  0.16858415  0.94685793  1
  Si  Si140  1  0.88007786  0.16858415  0.55314207  1
  Si  Si141  1  0.38007786  0.33141585  0.94685793  1
  Si  Si142  1  0.61992214  0.66858415  0.44685793  1
  Si  Si143  1  0.11992214  0.83141585  0.05314207  1
  Si  Si144  1  0.13114632  0.88583394  0.56082566  1
  Si  Si145  1  0.63114632  0.61416606  0.93917434  1
  Si  Si146  1  0.36885368  0.38583394  0.43917434  1
  Si  Si147  1  0.86885368  0.11416606  0.06082566  1
  Si  Si148  1  0.86885368  0.11416606  0.43917434  1
  Si  Si149  1  0.36885368  0.38583394  0.06082566  1
  Si  Si150  1  0.63114632  0.61416606  0.56082566  1
  Si  Si151  1  0.13114632  0.88583394  0.93917434  1
