# generated using pymatgen
data_Ti2Be17
_symmetry_space_group_name_H-M   'P 1'
_cell_length_a   5.54441095
_cell_length_b   5.54441095
_cell_length_c   5.54441095
_cell_angle_alpha   82.84412023
_cell_angle_beta   82.84412021
_cell_angle_gamma   82.84412025
_symmetry_Int_Tables_number   1
_chemical_formula_structural   Ti2Be17
_chemical_formula_sum   'Ti2 Be17'
_cell_volume   166.76055655
_cell_formula_units_Z   1
loop_
 _symmetry_equiv_pos_site_id
 _symmetry_equiv_pos_as_xyz
  1  'x, y, z'
loop_
 _atom_site_type_symbol
 _atom_site_label
 _atom_site_symmetry_multiplicity
 _atom_site_fract_x
 _atom_site_fract_y
 _atom_site_fract_z
 _atom_site_occupancy
  Be  Be0  1  0.40101263  0.40101263  0.40101263  1
  Be  Be1  1  0.59898737  0.59898737  0.59898737  1
  Be  Be2  1  0.50000000  0.50000000  0.00000000  1
  Be  Be3  1  0.00000000  0.50000000  0.50000000  1
  Be  Be4  1  0.50000000  0.00000000  0.50000000  1
  Be  Be5  1  0.79519380  0.50000000  0.20480620  1
  Be  Be6  1  0.20480620  0.79519380  0.50000000  1
  Be  Be7  1  0.50000000  0.20480620  0.79519380  1
  Be  Be8  1  0.20480620  0.50000000  0.79519380  1
  Be  Be9  1  0.79519380  0.20480620  0.50000000  1
  Be  Be10  1  0.50000000  0.79519380  0.20480620  1
  Be  Be11  1  0.15359101  0.66018138  0.15359101  1
  Be  Be12  1  0.15359101  0.15359101  0.66018138  1
  Be  Be13  1  0.66018138  0.15359101  0.15359101  1
  Be  Be14  1  0.33981862  0.84640899  0.84640899  1
  Be  Be15  1  0.84640899  0.33981862  0.84640899  1
  Be  Be16  1  0.84640899  0.84640899  0.33981862  1
  Ti  Ti17  1  0.16383939  0.16383939  0.16383939  1
  Ti  Ti18  1  0.83616061  0.83616061  0.83616061  1
