# generated using pymatgen
data_VS
_symmetry_space_group_name_H-M   'P 1'
_cell_length_a   3.20809406
_cell_length_b   5.79284835
_cell_length_c   5.84974412
_cell_angle_alpha   90.01585770
_cell_angle_beta   90.00263431
_cell_angle_gamma   90.00043694
_symmetry_Int_Tables_number   1
_chemical_formula_structural   VS
_chemical_formula_sum   'V4 S4'
_cell_volume   108.71165447
_cell_formula_units_Z   4
loop_
 _symmetry_equiv_pos_site_id
 _symmetry_equiv_pos_as_xyz
  1  'x, y, z'
loop_
 _atom_site_type_symbol
 _atom_site_label
 _atom_site_symmetry_multiplicity
 _atom_site_fract_x
 _atom_site_fract_y
 _atom_site_fract_z
 _atom_site_occupancy
  V  V0  1  0.74999497  0.80225688  0.98971444  1
  V  V1  1  0.75000221  0.69774530  0.48968833  1
  V  V2  1  0.25000311  0.30219061  0.51032272  1
  V  V3  1  0.25000699  0.19779738  0.01029537  1
  S  S4  1  0.25000219  0.92316414  0.71979436  1
  S  S5  1  0.74999457  0.07688487  0.28019902  1
  S  S6  1  0.74999653  0.42302920  0.78019063  1
  S  S7  1  0.24999944  0.57693161  0.21979513  1
