# generated using pymatgen
data_GeAs2
_symmetry_space_group_name_H-M   'P 1'
_cell_length_a   3.77233028
_cell_length_b   10.66309710
_cell_length_c   15.53091096
_cell_angle_alpha   90.00000000
_cell_angle_beta   90.00000000
_cell_angle_gamma   90.00000000
_symmetry_Int_Tables_number   1
_chemical_formula_structural   GeAs2
_chemical_formula_sum   'Ge8 As16'
_cell_volume   624.72660790
_cell_formula_units_Z   8
loop_
 _symmetry_equiv_pos_site_id
 _symmetry_equiv_pos_as_xyz
  1  'x, y, z'
loop_
 _atom_site_type_symbol
 _atom_site_label
 _atom_site_symmetry_multiplicity
 _atom_site_fract_x
 _atom_site_fract_y
 _atom_site_fract_z
 _atom_site_occupancy
  Ge  Ge0  1  0.00000000  0.57658916  0.85128758  1
  Ge  Ge1  1  0.00000000  0.42341084  0.14871242  1
  Ge  Ge2  1  0.00000000  0.07658916  0.64871242  1
  Ge  Ge3  1  0.00000000  0.92341084  0.35128758  1
  Ge  Ge4  1  0.50000000  0.79107332  0.72830092  1
  Ge  Ge5  1  0.50000000  0.20892668  0.27169908  1
  Ge  Ge6  1  0.50000000  0.29107332  0.77169908  1
  Ge  Ge7  1  0.50000000  0.70892668  0.22830092  1
  As  As8  1  0.00000000  0.64542343  0.69946039  1
  As  As9  1  0.00000000  0.35457657  0.30053961  1
  As  As10  1  0.00000000  0.14542343  0.80053961  1
  As  As11  1  0.00000000  0.85457657  0.19946039  1
  As  As12  1  0.00000000  0.76337108  0.94798504  1
  As  As13  1  0.00000000  0.23662892  0.05201496  1
  As  As14  1  0.00000000  0.26337108  0.55201496  1
  As  As15  1  0.00000000  0.73662892  0.44798504  1
  As  As16  1  0.50000000  0.88451038  0.87889355  1
  As  As17  1  0.50000000  0.11548962  0.12110645  1
  As  As18  1  0.50000000  0.38451038  0.62110645  1
  As  As19  1  0.50000000  0.61548962  0.37889355  1
  As  As20  1  0.50000000  0.94028050  0.60440693  1
  As  As21  1  0.50000000  0.05971950  0.39559307  1
  As  As22  1  0.50000000  0.44028050  0.89559307  1
  As  As23  1  0.50000000  0.55971950  0.10440693  1
