# generated using pymatgen
data_V2AsC
_symmetry_space_group_name_H-M   'P 1'
_cell_length_a   3.11150953
_cell_length_b   3.11150954
_cell_length_c   11.41371322
_cell_angle_alpha   90.00000000
_cell_angle_beta   90.00000000
_cell_angle_gamma   120.00000005
_symmetry_Int_Tables_number   1
_chemical_formula_structural   V2AsC
_chemical_formula_sum   'V4 As2 C2'
_cell_volume   95.69733849
_cell_formula_units_Z   2
loop_
 _symmetry_equiv_pos_site_id
 _symmetry_equiv_pos_as_xyz
  1  'x, y, z'
loop_
 _atom_site_type_symbol
 _atom_site_label
 _atom_site_symmetry_multiplicity
 _atom_site_fract_x
 _atom_site_fract_y
 _atom_site_fract_z
 _atom_site_occupancy
  C  C0  1  0.00000000  0.00000000  0.50000000  1
  C  C1  1  0.00000000  0.00000000  0.00000000  1
  V  V2  1  0.66666667  0.33333333  0.59104904  1
  V  V3  1  0.33333333  0.66666667  0.40895096  1
  V  V4  1  0.33333333  0.66666667  0.09104904  1
  V  V5  1  0.66666667  0.33333333  0.90895096  1
  As  As6  1  0.66666667  0.33333333  0.25000000  1
  As  As7  1  0.33333333  0.66666667  0.75000000  1
