# generated using pymatgen
data_CrWN2
_symmetry_space_group_name_H-M   'P 1'
_cell_length_a   5.57895365
_cell_length_b   5.57895364
_cell_length_c   5.57895364
_cell_angle_alpha   29.67089464
_cell_angle_beta   29.67089470
_cell_angle_gamma   29.67089464
_symmetry_Int_Tables_number   1
_chemical_formula_structural   CrWN2
_chemical_formula_sum   'Cr1 W1 N2'
_cell_volume   37.67169397
_cell_formula_units_Z   1
loop_
 _symmetry_equiv_pos_site_id
 _symmetry_equiv_pos_as_xyz
  1  'x, y, z'
loop_
 _atom_site_type_symbol
 _atom_site_label
 _atom_site_symmetry_multiplicity
 _atom_site_fract_x
 _atom_site_fract_y
 _atom_site_fract_z
 _atom_site_occupancy
  N  N0  1  0.41695102  0.41695102  0.41695102  1
  N  N1  1  0.24736768  0.24736768  0.24736768  1
  Cr  Cr2  1  0.83209351  0.83209351  0.83209351  1
  W  W3  1  0.99838779  0.99838779  0.99838779  1
