# generated using pymatgen
data_P2W
_symmetry_space_group_name_H-M   'P 1'
_cell_length_a   3.18353666
_cell_length_b   4.55047628
_cell_length_c   6.78721699
_cell_angle_alpha   80.77307684
_cell_angle_beta   76.43640765
_cell_angle_gamma   69.52475969
_symmetry_Int_Tables_number   1
_chemical_formula_structural   P2W
_chemical_formula_sum   'P4 W2'
_cell_volume   89.21137031
_cell_formula_units_Z   2
loop_
 _symmetry_equiv_pos_site_id
 _symmetry_equiv_pos_as_xyz
  1  'x, y, z'
loop_
 _atom_site_type_symbol
 _atom_site_label
 _atom_site_symmetry_multiplicity
 _atom_site_fract_x
 _atom_site_fract_y
 _atom_site_fract_z
 _atom_site_occupancy
  P  P0  1  0.13790276  0.74844215  0.97575232  1
  P  P1  1  0.86209724  0.25155785  0.02424768  1
  P  P2  1  0.39947602  0.80157742  0.39947054  1
  P  P3  1  0.60052398  0.19842258  0.60052946  1
  W  W4  1  0.84195556  0.60884153  0.70724735  1
  W  W5  1  0.15804444  0.39115847  0.29275265  1
