# generated using pymatgen
data_As2Ir
_symmetry_space_group_name_H-M   'P 1'
_cell_length_a   6.14348226
_cell_length_b   6.15188186
_cell_length_c   6.24867263
_cell_angle_alpha   90.00000000
_cell_angle_beta   113.02820077
_cell_angle_gamma   90.00000000
_symmetry_Int_Tables_number   1
_chemical_formula_structural   As2Ir
_chemical_formula_sum   'As8 Ir4'
_cell_volume   217.34299772
_cell_formula_units_Z   4
loop_
 _symmetry_equiv_pos_site_id
 _symmetry_equiv_pos_as_xyz
  1  'x, y, z'
loop_
 _atom_site_type_symbol
 _atom_site_label
 _atom_site_symmetry_multiplicity
 _atom_site_fract_x
 _atom_site_fract_y
 _atom_site_fract_z
 _atom_site_occupancy
  As  As0  1  0.15400471  0.87310070  0.87487110  1
  As  As1  1  0.84599529  0.37310070  0.62512890  1
  As  As2  1  0.84599529  0.12689930  0.12512890  1
  As  As3  1  0.15400471  0.62689930  0.37487110  1
  As  As4  1  0.33847924  0.37034719  0.18453120  1
  As  As5  1  0.66152076  0.87034719  0.31546880  1
  As  As6  1  0.66152076  0.62965281  0.81546880  1
  As  As7  1  0.33847924  0.12965281  0.68453120  1
  Ir  Ir8  1  0.27239158  0.49995937  0.79212487  1
  Ir  Ir9  1  0.72760842  0.99995937  0.70787513  1
  Ir  Ir10  1  0.72760842  0.50004063  0.20787513  1
  Ir  Ir11  1  0.27239158  0.00004063  0.29212487  1
