# generated using pymatgen
data_CaIn2Cu
_symmetry_space_group_name_H-M   'P 1'
_cell_length_a   4.48742021
_cell_length_b   5.85618486
_cell_length_c   7.50635812
_cell_angle_alpha   90.00000000
_cell_angle_beta   90.00000000
_cell_angle_gamma   112.52801515
_symmetry_Int_Tables_number   1
_chemical_formula_structural   CaIn2Cu
_chemical_formula_sum   'Ca2 In4 Cu2'
_cell_volume   182.20828634
_cell_formula_units_Z   2
loop_
 _symmetry_equiv_pos_site_id
 _symmetry_equiv_pos_as_xyz
  1  'x, y, z'
loop_
 _atom_site_type_symbol
 _atom_site_label
 _atom_site_symmetry_multiplicity
 _atom_site_fract_x
 _atom_site_fract_y
 _atom_site_fract_z
 _atom_site_occupancy
  Ca  Ca0  1  0.93200163  0.86400325  0.25000000  1
  Ca  Ca1  1  0.06799837  0.13599675  0.75000000  1
  In  In2  1  0.35775166  0.71550331  0.55002712  1
  In  In3  1  0.64224834  0.28449669  0.44997288  1
  In  In4  1  0.35775166  0.71550331  0.94997288  1
  In  In5  1  0.64224834  0.28449669  0.05002712  1
  Cu  Cu6  1  0.78702653  0.57405306  0.75000000  1
  Cu  Cu7  1  0.21297347  0.42594694  0.25000000  1
