# generated using pymatgen
data_Sr3(AlGe)2
_symmetry_space_group_name_H-M   'P 1'
_cell_length_a   4.25189623
_cell_length_b   4.86670817
_cell_length_c   10.21863860
_cell_angle_alpha   103.78329883
_cell_angle_beta   102.00787448
_cell_angle_gamma   89.99999995
_symmetry_Int_Tables_number   1
_chemical_formula_structural   Sr3(AlGe)2
_chemical_formula_sum   'Sr3 Al2 Ge2'
_cell_volume   200.59543879
_cell_formula_units_Z   1
loop_
 _symmetry_equiv_pos_site_id
 _symmetry_equiv_pos_as_xyz
  1  'x, y, z'
loop_
 _atom_site_type_symbol
 _atom_site_label
 _atom_site_symmetry_multiplicity
 _atom_site_fract_x
 _atom_site_fract_y
 _atom_site_fract_z
 _atom_site_occupancy
  Al  Al0  1  0.93364728  0.43372934  0.86729456  1
  Al  Al1  1  0.06635272  0.56627066  0.13270544  1
  Ge  Ge2  1  0.35889286  0.35891791  0.71778573  1
  Ge  Ge3  1  0.64110714  0.64108209  0.28221427  1
  Sr  Sr4  1  0.81556760  0.81557958  0.63113520  1
  Sr  Sr5  1  0.50000000  0.00000000  0.00000000  1
  Sr  Sr6  1  0.18443240  0.18442042  0.36886480  1
