# generated using pymatgen
data_ScGa2
_symmetry_space_group_name_H-M   'P 1'
_cell_length_a   4.11950337
_cell_length_b   4.14540667
_cell_length_c   6.69286990
_cell_angle_alpha   90.00000000
_cell_angle_beta   107.92387163
_cell_angle_gamma   90.00000000
_symmetry_Int_Tables_number   1
_chemical_formula_structural   ScGa2
_chemical_formula_sum   'Sc2 Ga4'
_cell_volume   108.74712445
_cell_formula_units_Z   2
loop_
 _symmetry_equiv_pos_site_id
 _symmetry_equiv_pos_as_xyz
  1  'x, y, z'
loop_
 _atom_site_type_symbol
 _atom_site_label
 _atom_site_symmetry_multiplicity
 _atom_site_fract_x
 _atom_site_fract_y
 _atom_site_fract_z
 _atom_site_occupancy
  Sc  Sc0  1  0.34705335  0.00000000  0.69410671  1
  Sc  Sc1  1  0.65294665  0.00000000  0.30589329  1
  Ga  Ga2  1  -0.00000000  0.00000000  -0.00000000  1
  Ga  Ga3  1  0.50000000  0.50000000  -0.00000000  1
  Ga  Ga4  1  0.17660390  0.50000000  0.35320779  1
  Ga  Ga5  1  0.82339610  0.50000000  0.64679221  1
