# generated using pymatgen
data_CoMoO4
_symmetry_space_group_name_H-M   'P 1'
_cell_length_a   4.69038905
_cell_length_b   4.99426816
_cell_length_c   5.77316071
_cell_angle_alpha   90.00000000
_cell_angle_beta   90.00000000
_cell_angle_gamma   90.20961531
_symmetry_Int_Tables_number   1
_chemical_formula_structural   CoMoO4
_chemical_formula_sum   'Co2 Mo2 O8'
_cell_volume   135.23573494
_cell_formula_units_Z   2
loop_
 _symmetry_equiv_pos_site_id
 _symmetry_equiv_pos_as_xyz
  1  'x, y, z'
loop_
 _atom_site_type_symbol
 _atom_site_label
 _atom_site_symmetry_multiplicity
 _atom_site_fract_x
 _atom_site_fract_y
 _atom_site_fract_z
 _atom_site_occupancy
  O  O0  1  0.74106283  0.40094045  0.37542978  1
  O  O1  1  0.25893717  0.09905955  0.37542978  1
  O  O2  1  0.25893717  0.59905955  0.62457022  1
  O  O3  1  0.74106283  0.90094045  0.62457022  1
  O  O4  1  0.78154424  0.93128596  0.10947262  1
  O  O5  1  0.21845576  0.56871404  0.10947262  1
  O  O6  1  0.21845576  0.06871404  0.89052738  1
  O  O7  1  0.78154424  0.43128596  0.89052738  1
  Co  Co8  1  0.50000000  0.25000000  0.66395814  1
  Co  Co9  1  0.50000000  0.75000000  0.33604186  1
  Mo  Mo10  1  0.00000000  0.25000000  0.18059379  1
  Mo  Mo11  1  0.00000000  0.75000000  0.81940621  1
