# generated using pymatgen
data_Si(NiO2)2
_symmetry_space_group_name_H-M   'P 1'
_cell_length_a   5.73971254
_cell_length_b   5.73971254
_cell_length_c   5.73971254
_cell_angle_alpha   60.00000003
_cell_angle_beta   60.00000000
_cell_angle_gamma   60.00000003
_symmetry_Int_Tables_number   1
_chemical_formula_structural   Si(NiO2)2
_chemical_formula_sum   'Si2 Ni4 O8'
_cell_volume   133.70739563
_cell_formula_units_Z   2
loop_
 _symmetry_equiv_pos_site_id
 _symmetry_equiv_pos_as_xyz
  1  'x, y, z'
loop_
 _atom_site_type_symbol
 _atom_site_label
 _atom_site_symmetry_multiplicity
 _atom_site_fract_x
 _atom_site_fract_y
 _atom_site_fract_z
 _atom_site_occupancy
  O  O0  1  0.75612359  0.75612353  0.75612419  1
  O  O1  1  0.24387618  0.24387621  0.76837242  1
  O  O2  1  0.24387586  0.76837205  0.24387561  1
  O  O3  1  0.76837107  0.24387621  0.24387593  1
  O  O4  1  0.75612391  0.23162768  0.75612464  1
  O  O5  1  0.23162870  0.75612353  0.75612432  1
  O  O6  1  0.24387618  0.24387621  0.24387606  1
  O  O7  1  0.75612359  0.75612353  0.23162782  1
  Si  Si8  1  0.12499988  0.12500023  0.12500038  1
  Si  Si9  1  0.87499989  0.87499950  0.87499987  1
  Ni  Ni10  1  0.49999953  0.50000094  0.49999977  1
  Ni  Ni11  1  0.49999953  0.50000094  0.99999890  1
  Ni  Ni12  1  0.99999965  0.50000094  0.49999927  1
  Ni  Ni13  1  0.49999988  0.00000000  0.49999962  1
