# generated using pymatgen
data_CaZn2
_symmetry_space_group_name_H-M   'P 1'
_cell_length_a   4.59021589
_cell_length_b   5.76867528
_cell_length_c   5.76867527
_cell_angle_alpha   79.59629414
_cell_angle_beta   66.55572147
_cell_angle_gamma   66.55572151
_symmetry_Int_Tables_number   1
_chemical_formula_structural   CaZn2
_chemical_formula_sum   'Ca2 Zn4'
_cell_volume   128.52727708
_cell_formula_units_Z   2
loop_
 _symmetry_equiv_pos_site_id
 _symmetry_equiv_pos_as_xyz
  1  'x, y, z'
loop_
 _atom_site_type_symbol
 _atom_site_label
 _atom_site_symmetry_multiplicity
 _atom_site_fract_x
 _atom_site_fract_y
 _atom_site_fract_z
 _atom_site_occupancy
  Ca  Ca0  1  0.55034601  0.69965399  0.19965399  1
  Ca  Ca1  1  0.44965399  0.30034601  0.80034601  1
  Zn  Zn2  1  0.16404452  0.27444373  0.39746723  1
  Zn  Zn3  1  0.83595548  0.72555627  0.60253277  1
  Zn  Zn4  1  0.16404452  0.89746723  0.77444373  1
  Zn  Zn5  1  0.83595548  0.10253277  0.22555627  1
