# generated using pymatgen
data_YSn2
_symmetry_space_group_name_H-M   'P 1'
_cell_length_a   4.37381044
_cell_length_b   4.43987192
_cell_length_c   8.50759819
_cell_angle_alpha   105.12559324
_cell_angle_beta   90.00000000
_cell_angle_gamma   90.00000000
_symmetry_Int_Tables_number   1
_chemical_formula_structural   YSn2
_chemical_formula_sum   'Y2 Sn4'
_cell_volume   159.48687405
_cell_formula_units_Z   2
loop_
 _symmetry_equiv_pos_site_id
 _symmetry_equiv_pos_as_xyz
  1  'x, y, z'
loop_
 _atom_site_type_symbol
 _atom_site_label
 _atom_site_symmetry_multiplicity
 _atom_site_fract_x
 _atom_site_fract_y
 _atom_site_fract_z
 _atom_site_occupancy
  Y  Y0  1  0.75000000  0.09894150  0.19788300  1
  Y  Y1  1  0.25000000  0.90105850  0.80211700  1
  Sn  Sn2  1  0.75000000  0.43662567  0.87325134  1
  Sn  Sn3  1  0.25000000  0.56337433  0.12674866  1
  Sn  Sn4  1  0.75000000  0.74889934  0.49779869  1
  Sn  Sn5  1  0.25000000  0.25110066  0.50220131  1
