# generated using pymatgen
data_ZrSe3
_symmetry_space_group_name_H-M   'P 1'
_cell_length_a   3.78810199
_cell_length_b   5.48496728
_cell_length_c   10.15612631
_cell_angle_alpha   97.30281904
_cell_angle_beta   90.00000000
_cell_angle_gamma   90.00000000
_symmetry_Int_Tables_number   1
_chemical_formula_structural   ZrSe3
_chemical_formula_sum   'Zr2 Se6'
_cell_volume   209.30833222
_cell_formula_units_Z   2
loop_
 _symmetry_equiv_pos_site_id
 _symmetry_equiv_pos_as_xyz
  1  'x, y, z'
loop_
 _atom_site_type_symbol
 _atom_site_label
 _atom_site_symmetry_multiplicity
 _atom_site_fract_x
 _atom_site_fract_y
 _atom_site_fract_z
 _atom_site_occupancy
  Se  Se0  1  0.25000000  0.10709411  0.81095108  1
  Se  Se1  1  0.75000000  0.89290589  0.18904892  1
  Se  Se2  1  0.25000000  0.54050786  0.81033480  1
  Se  Se3  1  0.75000000  0.45949214  0.18966520  1
  Se  Se4  1  0.25000000  0.23781199  0.44883927  1
  Se  Se5  1  0.75000000  0.76218801  0.55116073  1
  Zr  Zr6  1  0.75000000  0.28495572  0.64797417  1
  Zr  Zr7  1  0.25000000  0.71504428  0.35202583  1
