# generated using pymatgen
data_Al21Pt8
_symmetry_space_group_name_H-M   'P 1'
_cell_length_a   10.68179036
_cell_length_b   10.68179036
_cell_length_c   10.68179036
_cell_angle_alpha   104.70962378
_cell_angle_beta   104.70962377
_cell_angle_gamma   119.48259733
_symmetry_Int_Tables_number   1
_chemical_formula_structural   Al21Pt8
_chemical_formula_sum   'Al42 Pt16'
_cell_volume   916.42327576
_cell_formula_units_Z   2
loop_
 _symmetry_equiv_pos_site_id
 _symmetry_equiv_pos_as_xyz
  1  'x, y, z'
loop_
 _atom_site_type_symbol
 _atom_site_label
 _atom_site_symmetry_multiplicity
 _atom_site_fract_x
 _atom_site_fract_y
 _atom_site_fract_z
 _atom_site_occupancy
  Al  Al0  1  0.12500000  0.37500000  0.75000000  1
  Al  Al1  1  0.87500000  0.62500000  0.25000000  1
  Al  Al2  1  0.61503872  0.72224804  0.78666651  1
  Al  Al3  1  0.22224804  0.93558154  0.10720933  1
  Al  Al4  1  0.32837221  0.11503872  0.39279067  1
  Al  Al5  1  0.43558154  0.82837221  0.71333349  1
  Al  Al6  1  0.38496128  0.27775196  0.21333349  1
  Al  Al7  1  0.77775196  0.06441846  0.89279067  1
  Al  Al8  1  0.67162779  0.88496128  0.60720933  1
  Al  Al9  1  0.56441846  0.17162779  0.28666651  1
  Al  Al10  1  0.66182005  0.07509691  0.09046902  1
  Al  Al11  1  0.57509691  0.98462789  0.41327686  1
  Al  Al12  1  0.07135103  0.16182005  0.08672314  1
  Al  Al13  1  0.48462789  0.57135103  0.40953098  1
  Al  Al14  1  0.33817995  0.92490309  0.90953098  1
  Al  Al15  1  0.42490309  0.01537211  0.58672314  1
  Al  Al16  1  0.92864897  0.83817995  0.91327686  1
  Al  Al17  1  0.51537211  0.42864897  0.59046902  1
  Al  Al18  1  0.94129288  0.18182887  0.32202528  1
  Al  Al19  1  0.68182887  0.85980359  0.24053600  1
  Al  Al20  1  0.11926759  0.44129288  0.25946400  1
  Al  Al21  1  0.35980359  0.61926759  0.17797472  1
  Al  Al22  1  0.05870712  0.81817113  0.67797472  1
  Al  Al23  1  0.31817113  0.14019641  0.75946400  1
  Al  Al24  1  0.88073241  0.55870712  0.74053600  1
  Al  Al25  1  0.64019641  0.38073241  0.82202528  1
  Al  Al26  1  0.15517789  0.17721326  0.54137309  1
  Al  Al27  1  0.67721326  0.63584017  0.02203538  1
  Al  Al28  1  0.11380479  0.65517789  0.47796462  1
  Al  Al29  1  0.13584017  0.61380479  0.95862691  1
  Al  Al30  1  0.84482211  0.82278674  0.45862691  1
  Al  Al31  1  0.32278674  0.36415983  0.97796462  1
  Al  Al32  1  0.88619521  0.34482211  0.52203538  1
  Al  Al33  1  0.86415983  0.38619521  0.04137309  1
  Al  Al34  1  0.28249359  0.51010973  0.58781146  1
  Al  Al35  1  0.01010973  0.92229827  0.22761613  1
  Al  Al36  1  0.19468213  0.78249359  0.27238387  1
  Al  Al37  1  0.42229827  0.69468213  0.91218854  1
  Al  Al38  1  0.71750641  0.48989027  0.41218854  1
  Al  Al39  1  0.98989027  0.07770173  0.77238387  1
  Al  Al40  1  0.80531787  0.21750641  0.72761613  1
  Al  Al41  1  0.57770173  0.30531787  0.08781146  1
  Pt  Pt42  1  0.85095197  0.37753408  0.28761943  1
  Pt  Pt43  1  0.87753408  0.08991465  0.52658212  1
  Pt  Pt44  1  0.06333253  0.35095197  0.97341788  1
  Pt  Pt45  1  0.58991465  0.56333253  0.21238057  1
  Pt  Pt46  1  0.14904803  0.62246592  0.71238057  1
  Pt  Pt47  1  0.12246592  0.91008535  0.47341788  1
  Pt  Pt48  1  0.93666747  0.64904803  0.02658212  1
  Pt  Pt49  1  0.41008535  0.43666747  0.78761943  1
  Pt  Pt50  1  0.20187793  0.06828838  0.93677780  1
  Pt  Pt51  1  0.56828838  0.13151057  0.86641045  1
  Pt  Pt52  1  0.76510012  0.70187793  0.63358955  1
  Pt  Pt53  1  0.63151057  0.26510012  0.56322220  1
  Pt  Pt54  1  0.79812207  0.93171162  0.06322220  1
  Pt  Pt55  1  0.43171162  0.86848943  0.13358955  1
  Pt  Pt56  1  0.23489988  0.29812207  0.36641045  1
  Pt  Pt57  1  0.36848943  0.73489988  0.43677780  1
