# generated using pymatgen
data_Sc2Pt
_symmetry_space_group_name_H-M   'P 1'
_cell_length_a   4.52037439
_cell_length_b   6.62434755
_cell_length_c   8.25413986
_cell_angle_alpha   90.00000000
_cell_angle_beta   90.00000000
_cell_angle_gamma   90.00000000
_symmetry_Int_Tables_number   1
_chemical_formula_structural   Sc2Pt
_chemical_formula_sum   'Sc8 Pt4'
_cell_volume   247.16634704
_cell_formula_units_Z   4
loop_
 _symmetry_equiv_pos_site_id
 _symmetry_equiv_pos_as_xyz
  1  'x, y, z'
loop_
 _atom_site_type_symbol
 _atom_site_label
 _atom_site_symmetry_multiplicity
 _atom_site_fract_x
 _atom_site_fract_y
 _atom_site_fract_z
 _atom_site_occupancy
  Sc  Sc0  1  0.25000000  0.48715813  0.82613725  1
  Sc  Sc1  1  0.75000000  0.51284187  0.17386275  1
  Sc  Sc2  1  0.25000000  0.98715813  0.67386275  1
  Sc  Sc3  1  0.75000000  0.01284187  0.32613725  1
  Sc  Sc4  1  0.75000000  0.14810454  0.92311480  1
  Sc  Sc5  1  0.25000000  0.85189546  0.07688520  1
  Sc  Sc6  1  0.75000000  0.64810454  0.57688520  1
  Sc  Sc7  1  0.25000000  0.35189546  0.42311480  1
  Pt  Pt8  1  0.25000000  0.75923975  0.40265320  1
  Pt  Pt9  1  0.75000000  0.24076025  0.59734680  1
  Pt  Pt10  1  0.25000000  0.25923975  0.09734680  1
  Pt  Pt11  1  0.75000000  0.74076025  0.90265320  1
