# generated using pymatgen
data_Mg2Cu3Si
_symmetry_space_group_name_H-M   'P 1'
_cell_length_a   5.02233354
_cell_length_b   5.02233355
_cell_length_c   7.87348252
_cell_angle_alpha   90.00000000
_cell_angle_beta   90.00000000
_cell_angle_gamma   119.99999995
_symmetry_Int_Tables_number   1
_chemical_formula_structural   Mg2Cu3Si
_chemical_formula_sum   'Mg4 Si2 Cu6'
_cell_volume   171.99214110
_cell_formula_units_Z   2
loop_
 _symmetry_equiv_pos_site_id
 _symmetry_equiv_pos_as_xyz
  1  'x, y, z'
loop_
 _atom_site_type_symbol
 _atom_site_label
 _atom_site_symmetry_multiplicity
 _atom_site_fract_x
 _atom_site_fract_y
 _atom_site_fract_z
 _atom_site_occupancy
  Mg  Mg0  1  0.33333333  0.66666667  0.06075003  1
  Mg  Mg1  1  0.66666667  0.33333333  0.56075003  1
  Mg  Mg2  1  0.66666667  0.33333333  0.93924997  1
  Mg  Mg3  1  0.33333333  0.66666667  0.43924997  1
  Si  Si4  1  0.00000000  0.00000000  0.00000000  1
  Si  Si5  1  0.00000000  0.00000000  0.50000000  1
  Cu  Cu6  1  0.16856276  0.33712551  0.75000000  1
  Cu  Cu7  1  0.83143724  0.16856276  0.25000000  1
  Cu  Cu8  1  0.33712551  0.16856276  0.25000000  1
  Cu  Cu9  1  0.66287449  0.83143724  0.75000000  1
  Cu  Cu10  1  0.16856276  0.83143724  0.75000000  1
  Cu  Cu11  1  0.83143724  0.66287449  0.25000000  1
