# generated using pymatgen
data_Ta2Ni
_symmetry_space_group_name_H-M   'P 1'
_cell_length_a   4.87000309
_cell_length_b   5.03258739
_cell_length_c   5.03258739
_cell_angle_alpha   76.46096518
_cell_angle_beta   61.06305144
_cell_angle_gamma   61.06305139
_symmetry_Int_Tables_number   1
_chemical_formula_structural   Ta2Ni
_chemical_formula_sum   'Ta4 Ni2'
_cell_volume   94.46687493
_cell_formula_units_Z   2
loop_
 _symmetry_equiv_pos_site_id
 _symmetry_equiv_pos_as_xyz
  1  'x, y, z'
loop_
 _atom_site_type_symbol
 _atom_site_label
 _atom_site_symmetry_multiplicity
 _atom_site_fract_x
 _atom_site_fract_y
 _atom_site_fract_z
 _atom_site_occupancy
  Ni  Ni0  1  0.25000000  0.00000000  0.00000000  1
  Ni  Ni1  1  0.75000000  0.00000000  0.00000000  1
  Ta  Ta2  1  0.15867008  0.50000000  0.18265984  1
  Ta  Ta3  1  0.34132992  0.81734016  0.50000000  1
  Ta  Ta4  1  0.65867008  0.18265984  0.50000000  1
  Ta  Ta5  1  0.84132992  0.50000000  0.81734016  1
