# generated using pymatgen
data_Sb2Pt3
_symmetry_space_group_name_H-M   'P 1'
_cell_length_a   5.40563094
_cell_length_b   6.58610005
_cell_length_c   6.99532994
_cell_angle_alpha   118.08297732
_cell_angle_beta   112.72908289
_cell_angle_gamma   89.99999999
_symmetry_Int_Tables_number   1
_chemical_formula_structural   Sb2Pt3
_chemical_formula_sum   'Sb4 Pt6'
_cell_volume   197.53591380
_cell_formula_units_Z   2
loop_
 _symmetry_equiv_pos_site_id
 _symmetry_equiv_pos_as_xyz
  1  'x, y, z'
loop_
 _atom_site_type_symbol
 _atom_site_label
 _atom_site_symmetry_multiplicity
 _atom_site_fract_x
 _atom_site_fract_y
 _atom_site_fract_z
 _atom_site_occupancy
  Sb  Sb0  1  0.34473762  0.60479247  0.68947524  1
  Sb  Sb1  1  0.65526238  0.39520753  0.31052476  1
  Sb  Sb2  1  0.15526238  0.91531724  0.31052476  1
  Sb  Sb3  1  0.84473762  0.08468276  0.68947524  1
  Pt  Pt4  1  0.89086524  0.52037915  0.78173048  1
  Pt  Pt5  1  0.10913476  0.47962085  0.21826952  1
  Pt  Pt6  1  0.39086524  0.26135133  0.78173048  1
  Pt  Pt7  1  0.60913476  0.73864867  0.21826952  1
  Pt  Pt8  1  0.75000000  0.00000000  0.00000000  1
  Pt  Pt9  1  0.25000000  0.00000000  0.00000000  1
