# generated using pymatgen
data_Fe7W6
_symmetry_space_group_name_H-M   'P 1'
_cell_length_a   4.75928680
_cell_length_b   4.75928680
_cell_length_c   9.09352591
_cell_angle_alpha   74.82990678
_cell_angle_beta   74.82990678
_cell_angle_gamma   60.00000606
_symmetry_Int_Tables_number   1
_chemical_formula_structural   Fe7W6
_chemical_formula_sum   'Fe7 W6'
_cell_volume   170.04177305
_cell_formula_units_Z   1
loop_
 _symmetry_equiv_pos_site_id
 _symmetry_equiv_pos_as_xyz
  1  'x, y, z'
loop_
 _atom_site_type_symbol
 _atom_site_label
 _atom_site_symmetry_multiplicity
 _atom_site_fract_x
 _atom_site_fract_y
 _atom_site_fract_z
 _atom_site_occupancy
  Fe  Fe0  1  0.00000000  -0.00000000  -0.00000000  1
  Fe  Fe1  1  0.58817855  0.09228042  0.22726061  1
  Fe  Fe2  1  0.09228042  0.09228042  0.22726061  1
  Fe  Fe3  1  0.09228042  0.58817855  0.22726061  1
  Fe  Fe4  1  0.41182145  0.90771958  0.77273939  1
  Fe  Fe5  1  0.90771958  0.90771958  0.77273939  1
  Fe  Fe6  1  0.90771958  0.41182145  0.77273939  1
  W  W7  1  0.16523647  0.16523647  0.50429060  1
  W  W8  1  0.83476353  0.83476353  0.49570940  1
  W  W9  1  0.34827304  0.34827304  0.95518088  1
  W  W10  1  0.65172696  0.65172696  0.04481912  1
  W  W11  1  0.45083982  0.45083982  0.64748053  1
  W  W12  1  0.54916018  0.54916018  0.35251947  1
