# generated using pymatgen
data_GePd
_symmetry_space_group_name_H-M   'P 1'
_cell_length_a   3.60861271
_cell_length_b   5.84837416
_cell_length_c   6.31480724
_cell_angle_alpha   90.00000000
_cell_angle_beta   90.00000000
_cell_angle_gamma   90.00000000
_symmetry_Int_Tables_number   1
_chemical_formula_structural   GePd
_chemical_formula_sum   'Ge4 Pd4'
_cell_volume   133.27095881
_cell_formula_units_Z   4
loop_
 _symmetry_equiv_pos_site_id
 _symmetry_equiv_pos_as_xyz
  1  'x, y, z'
loop_
 _atom_site_type_symbol
 _atom_site_label
 _atom_site_symmetry_multiplicity
 _atom_site_fract_x
 _atom_site_fract_y
 _atom_site_fract_z
 _atom_site_occupancy
  Ge  Ge0  1  0.75000000  0.81385198  0.42050750  1
  Ge  Ge1  1  0.25000000  0.18614802  0.57949250  1
  Ge  Ge2  1  0.75000000  0.31385198  0.07949250  1
  Ge  Ge3  1  0.25000000  0.68614802  0.92050750  1
  Pd  Pd4  1  0.75000000  0.99573344  0.80966941  1
  Pd  Pd5  1  0.25000000  0.00426656  0.19033059  1
  Pd  Pd6  1  0.75000000  0.49573344  0.69033059  1
  Pd  Pd7  1  0.25000000  0.50426656  0.30966941  1
