# generated using pymatgen
data_SbTePd
_symmetry_space_group_name_H-M   'P 1'
_cell_length_a   6.64136416
_cell_length_b   6.64136416
_cell_length_c   6.64136416
_cell_angle_alpha   90.00000000
_cell_angle_beta   90.00000000
_cell_angle_gamma   90.00000000
_symmetry_Int_Tables_number   1
_chemical_formula_structural   SbTePd
_chemical_formula_sum   'Sb4 Te4 Pd4'
_cell_volume   292.93541688
_cell_formula_units_Z   4
loop_
 _symmetry_equiv_pos_site_id
 _symmetry_equiv_pos_as_xyz
  1  'x, y, z'
loop_
 _atom_site_type_symbol
 _atom_site_label
 _atom_site_symmetry_multiplicity
 _atom_site_fract_x
 _atom_site_fract_y
 _atom_site_fract_z
 _atom_site_occupancy
  Pd  Pd0  1  0.00393413  0.00393413  0.00393413  1
  Pd  Pd1  1  0.49606587  0.99606587  0.50393413  1
  Pd  Pd2  1  0.50393413  0.49606587  0.99606587  1
  Pd  Pd3  1  0.99606587  0.50393413  0.49606587  1
  Sb  Sb4  1  0.62724042  0.62724042  0.62724042  1
  Sb  Sb5  1  0.87275958  0.37275958  0.12724042  1
  Sb  Sb6  1  0.12724042  0.87275958  0.37275958  1
  Sb  Sb7  1  0.37275958  0.12724042  0.87275958  1
  Te  Te8  1  0.37405164  0.37405164  0.37405164  1
  Te  Te9  1  0.12594836  0.62594836  0.87405164  1
  Te  Te10  1  0.87405164  0.12594836  0.62594836  1
  Te  Te11  1  0.62594836  0.87405164  0.12594836  1
