# generated using pymatgen
data_Sn4Au
_symmetry_space_group_name_H-M   'P 1'
_cell_length_a   6.65822396
_cell_length_b   6.68237882
_cell_length_c   6.81154514
_cell_angle_alpha   119.37467164
_cell_angle_beta   90.00000000
_cell_angle_gamma   90.00000000
_symmetry_Int_Tables_number   1
_chemical_formula_structural   Sn4Au
_chemical_formula_sum   'Sn8 Au2'
_cell_volume   264.09975865
_cell_formula_units_Z   2
loop_
 _symmetry_equiv_pos_site_id
 _symmetry_equiv_pos_as_xyz
  1  'x, y, z'
loop_
 _atom_site_type_symbol
 _atom_site_label
 _atom_site_symmetry_multiplicity
 _atom_site_fract_x
 _atom_site_fract_y
 _atom_site_fract_z
 _atom_site_occupancy
  Sn  Sn0  1  0.66668549  0.28117048  0.24220439  1
  Sn  Sn1  1  0.33331451  0.96103391  0.24220439  1
  Sn  Sn2  1  0.83331451  0.78117048  0.24220439  1
  Sn  Sn3  1  0.16668549  0.46103391  0.24220439  1
  Sn  Sn4  1  0.82950024  0.19810042  0.72299221  1
  Sn  Sn5  1  0.17049976  0.52489179  0.72299221  1
  Sn  Sn6  1  0.67049976  0.69810042  0.72299221  1
  Sn  Sn7  1  0.32950024  0.02489179  0.72299221  1
  Au  Au8  1  0.50000000  0.49460340  0.98920680  1
  Au  Au9  1  0.00000000  0.99460340  0.98920680  1
