# generated using pymatgen
data_PdS2
_symmetry_space_group_name_H-M   'P 1'
_cell_length_a   5.50170644
_cell_length_b   5.59391901
_cell_length_c   8.60708802
_cell_angle_alpha   90.00000000
_cell_angle_beta   90.00000000
_cell_angle_gamma   90.00000000
_symmetry_Int_Tables_number   1
_chemical_formula_structural   PdS2
_chemical_formula_sum   'Pd4 S8'
_cell_volume   264.89260370
_cell_formula_units_Z   4
loop_
 _symmetry_equiv_pos_site_id
 _symmetry_equiv_pos_as_xyz
  1  'x, y, z'
loop_
 _atom_site_type_symbol
 _atom_site_label
 _atom_site_symmetry_multiplicity
 _atom_site_fract_x
 _atom_site_fract_y
 _atom_site_fract_z
 _atom_site_occupancy
  S  S0  1  0.60418772  0.11029342  0.07310841  1
  S  S1  1  0.10418772  0.38970658  0.92689159  1
  S  S2  1  0.39581228  0.61029342  0.42689159  1
  S  S3  1  0.89581228  0.88970658  0.57310841  1
  S  S4  1  0.10418772  0.11029342  0.42689159  1
  S  S5  1  0.60418772  0.38970658  0.57310841  1
  S  S6  1  0.89581228  0.61029342  0.07310841  1
  S  S7  1  0.39581228  0.88970658  0.92689159  1
  Pd  Pd8  1  0.50000000  0.00000000  0.50000000  1
  Pd  Pd9  1  0.00000000  0.50000000  0.50000000  1
  Pd  Pd10  1  0.50000000  0.50000000  0.00000000  1
  Pd  Pd11  1  0.00000000  0.00000000  0.00000000  1
