# generated using pymatgen
data_TiCu3
_symmetry_space_group_name_H-M   'P 1'
_cell_length_a   4.30773768
_cell_length_b   4.43013241
_cell_length_c   5.42695334
_cell_angle_alpha   90.00000000
_cell_angle_beta   90.00000000
_cell_angle_gamma   90.00000000
_symmetry_Int_Tables_number   1
_chemical_formula_structural   TiCu3
_chemical_formula_sum   'Ti2 Cu6'
_cell_volume   103.56715433
_cell_formula_units_Z   2
loop_
 _symmetry_equiv_pos_site_id
 _symmetry_equiv_pos_as_xyz
  1  'x, y, z'
loop_
 _atom_site_type_symbol
 _atom_site_label
 _atom_site_symmetry_multiplicity
 _atom_site_fract_x
 _atom_site_fract_y
 _atom_site_fract_z
 _atom_site_occupancy
  Ti  Ti0  1  0.75000000  0.33931178  0.75000000  1
  Ti  Ti1  1  0.25000000  0.66068822  0.25000000  1
  Cu  Cu2  1  0.25000000  0.16752440  0.99690559  1
  Cu  Cu3  1  0.75000000  0.83247560  0.00309441  1
  Cu  Cu4  1  0.75000000  0.31932093  0.25000000  1
  Cu  Cu5  1  0.25000000  0.68067907  0.75000000  1
  Cu  Cu6  1  0.75000000  0.83247560  0.49690559  1
  Cu  Cu7  1  0.25000000  0.16752440  0.50309441  1
