# generated using pymatgen
data_SrMgGe
_symmetry_space_group_name_H-M   'P 1'
_cell_length_a   4.62872867
_cell_length_b   7.87822988
_cell_length_c   8.64717300
_cell_angle_alpha   90.00000000
_cell_angle_beta   90.00000000
_cell_angle_gamma   90.00000000
_symmetry_Int_Tables_number   1
_chemical_formula_structural   SrMgGe
_chemical_formula_sum   'Sr4 Mg4 Ge4'
_cell_volume   315.32944073
_cell_formula_units_Z   4
loop_
 _symmetry_equiv_pos_site_id
 _symmetry_equiv_pos_as_xyz
  1  'x, y, z'
loop_
 _atom_site_type_symbol
 _atom_site_label
 _atom_site_symmetry_multiplicity
 _atom_site_fract_x
 _atom_site_fract_y
 _atom_site_fract_z
 _atom_site_occupancy
  Mg  Mg0  1  0.75000000  0.35772954  0.93738636  1
  Mg  Mg1  1  0.25000000  0.64227046  0.06261364  1
  Mg  Mg2  1  0.75000000  0.85772954  0.56261364  1
  Mg  Mg3  1  0.25000000  0.14227046  0.43738636  1
  Ge  Ge4  1  0.75000000  0.22090185  0.60992347  1
  Ge  Ge5  1  0.25000000  0.27909815  0.10992347  1
  Ge  Ge6  1  0.25000000  0.77909815  0.39007653  1
  Ge  Ge7  1  0.75000000  0.72090185  0.89007653  1
  Sr  Sr8  1  0.25000000  0.01551735  0.81673486  1
  Sr  Sr9  1  0.25000000  0.51551735  0.68326514  1
  Sr  Sr10  1  0.75000000  0.48448265  0.31673486  1
  Sr  Sr11  1  0.75000000  0.98448265  0.18326514  1
