# generated using pymatgen
data_Fe7C3
_symmetry_space_group_name_H-M   'P 1'
_cell_length_a   6.82578366
_cell_length_b   6.82578366
_cell_length_c   4.49481569
_cell_angle_alpha   90.00000000
_cell_angle_beta   90.00000000
_cell_angle_gamma   120.00000000
_symmetry_Int_Tables_number   1
_chemical_formula_structural   Fe7C3
_chemical_formula_sum   'Fe14 C6'
_cell_volume   181.36252712
_cell_formula_units_Z   2
loop_
 _symmetry_equiv_pos_site_id
 _symmetry_equiv_pos_as_xyz
  1  'x, y, z'
loop_
 _atom_site_type_symbol
 _atom_site_label
 _atom_site_symmetry_multiplicity
 _atom_site_fract_x
 _atom_site_fract_y
 _atom_site_fract_z
 _atom_site_occupancy
  C  C0  1  0.81344117  0.18655883  0.09586687  1
  C  C1  1  0.62688234  0.81344117  0.59586687  1
  C  C2  1  0.18655883  0.37311766  0.59586687  1
  C  C3  1  0.81344117  0.62688234  0.09586687  1
  C  C4  1  0.37311766  0.18655883  0.09586687  1
  C  C5  1  0.18655883  0.81344117  0.59586687  1
  Fe  Fe6  1  0.09130387  0.54565193  0.31581997  1
  Fe  Fe7  1  0.54565193  0.45434807  0.81581997  1
  Fe  Fe8  1  0.12240571  0.87759429  0.98968355  1
  Fe  Fe9  1  0.24481142  0.12240571  0.48968355  1
  Fe  Fe10  1  0.87759429  0.75518858  0.48968355  1
  Fe  Fe11  1  0.12240571  0.24481142  0.98968355  1
  Fe  Fe12  1  0.75518858  0.87759429  0.98968355  1
  Fe  Fe13  1  0.87759429  0.12240571  0.48968355  1
  Fe  Fe14  1  0.45434807  0.90869613  0.31581997  1
  Fe  Fe15  1  0.54565193  0.09130387  0.81581997  1
  Fe  Fe16  1  0.90869613  0.45434807  0.81581997  1
  Fe  Fe17  1  0.45434807  0.54565193  0.31581997  1
  Fe  Fe18  1  0.66666667  0.33333333  0.30788882  1
  Fe  Fe19  1  0.33333333  0.66666667  0.80788882  1
