# generated using pymatgen
data_HfMn2
_symmetry_space_group_name_H-M   'P 1'
_cell_length_a   4.89560052
_cell_length_b   4.89560051
_cell_length_c   8.16242263
_cell_angle_alpha   90.00000000
_cell_angle_beta   90.00000000
_cell_angle_gamma   120.00000004
_symmetry_Int_Tables_number   1
_chemical_formula_structural   HfMn2
_chemical_formula_sum   'Hf4 Mn8'
_cell_volume   169.41882024
_cell_formula_units_Z   4
loop_
 _symmetry_equiv_pos_site_id
 _symmetry_equiv_pos_as_xyz
  1  'x, y, z'
loop_
 _atom_site_type_symbol
 _atom_site_label
 _atom_site_symmetry_multiplicity
 _atom_site_fract_x
 _atom_site_fract_y
 _atom_site_fract_z
 _atom_site_occupancy
  Mn  Mn0  1  0.17066197  0.34132394  0.75000000  1
  Mn  Mn1  1  0.82933803  0.17066197  0.25000000  1
  Mn  Mn2  1  0.34132394  0.17066197  0.25000000  1
  Mn  Mn3  1  0.65867606  0.82933803  0.75000000  1
  Mn  Mn4  1  0.00000000  0.00000000  0.00000000  1
  Mn  Mn5  1  0.00000000  0.00000000  0.50000000  1
  Mn  Mn6  1  0.82933803  0.65867606  0.25000000  1
  Mn  Mn7  1  0.17066197  0.82933803  0.75000000  1
  Hf  Hf8  1  0.33333333  0.66666667  0.43608622  1
  Hf  Hf9  1  0.66666667  0.33333333  0.93608622  1
  Hf  Hf10  1  0.66666667  0.33333333  0.56391378  1
  Hf  Hf11  1  0.33333333  0.66666667  0.06391378  1
