# generated using pymatgen
data_VAs
_symmetry_space_group_name_H-M   'P 1'
_cell_length_a   3.33988569
_cell_length_b   5.86560781
_cell_length_c   6.27734759
_cell_angle_alpha   90.00000000
_cell_angle_beta   90.00000000
_cell_angle_gamma   90.00000000
_symmetry_Int_Tables_number   1
_chemical_formula_structural   VAs
_chemical_formula_sum   'V4 As4'
_cell_volume   122.97612428
_cell_formula_units_Z   4
loop_
 _symmetry_equiv_pos_site_id
 _symmetry_equiv_pos_as_xyz
  1  'x, y, z'
loop_
 _atom_site_type_symbol
 _atom_site_label
 _atom_site_symmetry_multiplicity
 _atom_site_fract_x
 _atom_site_fract_y
 _atom_site_fract_z
 _atom_site_occupancy
  V  V0  1  0.25855218  0.00496087  0.18310429  1
  V  V1  1  0.75855218  0.99503913  0.81689571  1
  V  V2  1  0.75855218  0.49503913  0.68310429  1
  V  V3  1  0.25855218  0.50496087  0.31689571  1
  As  As4  1  0.25874782  0.19355863  0.57343324  1
  As  As5  1  0.75874782  0.80644137  0.42656676  1
  As  As6  1  0.75874782  0.30644137  0.07343324  1
  As  As7  1  0.25874782  0.69355863  0.92656676  1
