# generated using pymatgen
data_Mg2Au
_symmetry_space_group_name_H-M   'P 1'
_cell_length_a   8.47216108
_cell_length_b   13.70053115
_cell_length_c   18.06452736
_cell_angle_alpha   90.00000000
_cell_angle_beta   90.00000000
_cell_angle_gamma   90.00000000
_symmetry_Int_Tables_number   1
_chemical_formula_structural   Mg2Au
_chemical_formula_sum   'Mg72 Au36'
_cell_volume   2096.80581327
_cell_formula_units_Z   36
loop_
 _symmetry_equiv_pos_site_id
 _symmetry_equiv_pos_as_xyz
  1  'x, y, z'
loop_
 _atom_site_type_symbol
 _atom_site_label
 _atom_site_symmetry_multiplicity
 _atom_site_fract_x
 _atom_site_fract_y
 _atom_site_fract_z
 _atom_site_occupancy
  Mg  Mg0  1  0.28945911  0.58094896  0.34573945  1
  Mg  Mg1  1  0.06373939  0.08358133  0.94149116  1
  Mg  Mg2  1  0.43717159  0.75000000  0.11033184  1
  Mg  Mg3  1  0.06439123  0.75000000  0.93732976  1
  Mg  Mg4  1  0.21241064  0.25000000  0.17840220  1
  Mg  Mg5  1  0.06380464  0.08395666  0.27108605  1
  Mg  Mg6  1  0.29552324  0.91487543  0.01216317  1
  Mg  Mg7  1  0.21054089  0.58094896  0.84573945  1
  Mg  Mg8  1  0.93717159  0.25000000  0.38966816  1
  Mg  Mg9  1  0.56282841  0.25000000  0.88966816  1
  Mg  Mg10  1  0.20425517  0.25000000  0.84576806  1
  Mg  Mg11  1  0.43460012  0.75000000  0.77245872  1
  Mg  Mg12  1  0.70425517  0.75000000  0.65423194  1
  Mg  Mg13  1  0.56373939  0.91641867  0.55850884  1
  Mg  Mg14  1  0.21054089  0.91905104  0.84573945  1
  Mg  Mg15  1  0.78945911  0.08094896  0.15426055  1
  Mg  Mg16  1  0.93619536  0.91604334  0.72891395  1
  Mg  Mg17  1  0.43626061  0.41641867  0.44149116  1
  Mg  Mg18  1  0.56539988  0.25000000  0.22754128  1
  Mg  Mg19  1  0.20710495  0.91600367  0.17842029  1
  Mg  Mg20  1  0.06282841  0.75000000  0.61033184  1
  Mg  Mg21  1  0.79539519  0.75000000  0.48868559  1
  Mg  Mg22  1  0.43619536  0.41604334  0.77108605  1
  Mg  Mg23  1  0.93460012  0.25000000  0.72754128  1
  Mg  Mg24  1  0.56439123  0.25000000  0.56267024  1
  Mg  Mg25  1  0.71054089  0.08094896  0.65426055  1
  Mg  Mg26  1  0.29289505  0.58399633  0.67842029  1
  Mg  Mg27  1  0.93560877  0.25000000  0.06267024  1
  Mg  Mg28  1  0.93447625  0.91741935  0.39350978  1
  Mg  Mg29  1  0.29289505  0.91600367  0.67842029  1
  Mg  Mg30  1  0.79289505  0.41600367  0.82157971  1
  Mg  Mg31  1  0.43447625  0.08258065  0.10649022  1
  Mg  Mg32  1  0.06552375  0.08258065  0.60649022  1
  Mg  Mg33  1  0.70710495  0.08399633  0.32157971  1
  Mg  Mg34  1  0.06539988  0.75000000  0.27245872  1
  Mg  Mg35  1  0.29574483  0.25000000  0.34576806  1
  Mg  Mg36  1  0.28945911  0.91905104  0.34573945  1
  Mg  Mg37  1  0.78945911  0.41905104  0.15426055  1
  Mg  Mg38  1  0.06552375  0.41741935  0.60649022  1
  Mg  Mg39  1  0.79289505  0.08399633  0.82157971  1
  Mg  Mg40  1  0.93447625  0.58258065  0.39350978  1
  Mg  Mg41  1  0.70710495  0.41600367  0.32157971  1
  Mg  Mg42  1  0.29552324  0.58512457  0.01216317  1
  Mg  Mg43  1  0.70460481  0.75000000  0.98868559  1
  Mg  Mg44  1  0.93626061  0.91641867  0.05850884  1
  Mg  Mg45  1  0.71054089  0.41905104  0.65426055  1
  Mg  Mg46  1  0.93626061  0.58358133  0.05850884  1
  Mg  Mg47  1  0.20710495  0.58399633  0.17842029  1
  Mg  Mg48  1  0.43619536  0.08395666  0.77108605  1
  Mg  Mg49  1  0.06380464  0.41604334  0.27108605  1
  Mg  Mg50  1  0.56380464  0.58395666  0.22891395  1
  Mg  Mg51  1  0.79552324  0.41487543  0.48783683  1
  Mg  Mg52  1  0.56552375  0.91741935  0.89350978  1
  Mg  Mg53  1  0.28758936  0.25000000  0.67840220  1
  Mg  Mg54  1  0.43447625  0.41741935  0.10649022  1
  Mg  Mg55  1  0.79574483  0.75000000  0.15423194  1
  Mg  Mg56  1  0.78758936  0.75000000  0.82159780  1
  Mg  Mg57  1  0.56380464  0.91604334  0.22891395  1
  Mg  Mg58  1  0.20447676  0.91487543  0.51216317  1
  Mg  Mg59  1  0.20460481  0.25000000  0.51131441  1
  Mg  Mg60  1  0.20447676  0.58512457  0.51216317  1
  Mg  Mg61  1  0.56552375  0.58258065  0.89350978  1
  Mg  Mg62  1  0.29539519  0.25000000  0.01131441  1
  Mg  Mg63  1  0.70447676  0.08512457  0.98783683  1
  Mg  Mg64  1  0.70447676  0.41487543  0.98783683  1
  Mg  Mg65  1  0.79552324  0.08512457  0.48783683  1
  Mg  Mg66  1  0.93619536  0.58395666  0.72891395  1
  Mg  Mg67  1  0.71241064  0.75000000  0.32159780  1
  Mg  Mg68  1  0.56373939  0.58358133  0.55850884  1
  Mg  Mg69  1  0.06373939  0.41641867  0.94149116  1
  Mg  Mg70  1  0.43626061  0.08358133  0.44149116  1
  Mg  Mg71  1  0.43560877  0.75000000  0.43732976  1
  Au  Au72  1  0.38828124  0.41666454  0.92436778  1
  Au  Au73  1  0.38828124  0.08333546  0.92436778  1
  Au  Au74  1  0.61041894  0.25000000  0.73707238  1
  Au  Au75  1  0.60949189  0.25000000  0.07545113  1
  Au  Au76  1  0.61171876  0.58333546  0.07563222  1
  Au  Au77  1  0.88979167  0.58285329  0.90626311  1
  Au  Au78  1  0.11052918  0.08374148  0.75920100  1
  Au  Au79  1  0.61171876  0.91666454  0.07563222  1
  Au  Au80  1  0.38979167  0.41714671  0.59373689  1
  Au  Au81  1  0.61052918  0.91625852  0.74079900  1
  Au  Au82  1  0.88947082  0.91625852  0.24079900  1
  Au  Au83  1  0.61020833  0.58285329  0.40626311  1
  Au  Au84  1  0.88680664  0.25000000  0.90942534  1
  Au  Au85  1  0.11041894  0.75000000  0.76292762  1
  Au  Au86  1  0.88947082  0.58374148  0.24079900  1
  Au  Au87  1  0.88979167  0.91714671  0.90626311  1
  Au  Au88  1  0.89050811  0.25000000  0.57545113  1
  Au  Au89  1  0.61052918  0.58374148  0.74079900  1
  Au  Au90  1  0.88828124  0.58333546  0.57563222  1
  Au  Au91  1  0.39050811  0.75000000  0.92454887  1
  Au  Au92  1  0.10949189  0.75000000  0.42454887  1
  Au  Au93  1  0.11052918  0.41625852  0.75920100  1
  Au  Au94  1  0.11171876  0.41666454  0.42436778  1
  Au  Au95  1  0.61020833  0.91714671  0.40626311  1
  Au  Au96  1  0.11319336  0.75000000  0.09057466  1
  Au  Au97  1  0.11171876  0.08333546  0.42436778  1
  Au  Au98  1  0.38947082  0.08374148  0.25920100  1
  Au  Au99  1  0.61319336  0.25000000  0.40942534  1
  Au  Au100  1  0.38947082  0.41625852  0.25920100  1
  Au  Au101  1  0.88828124  0.91666454  0.57563222  1
  Au  Au102  1  0.11020833  0.41714671  0.09373689  1
  Au  Au103  1  0.11020833  0.08285329  0.09373689  1
  Au  Au104  1  0.38680664  0.75000000  0.59057466  1
  Au  Au105  1  0.38958106  0.75000000  0.26292762  1
  Au  Au106  1  0.88958106  0.25000000  0.23707238  1
  Au  Au107  1  0.38979167  0.08285329  0.59373689  1
