# generated using pymatgen
data_FeWO4
_symmetry_space_group_name_H-M   'P 1'
_cell_length_a   4.82178719
_cell_length_b   5.11019907
_cell_length_c   5.76578710
_cell_angle_alpha   90.00000000
_cell_angle_beta   90.00000000
_cell_angle_gamma   89.13068330
_symmetry_Int_Tables_number   1
_chemical_formula_structural   FeWO4
_chemical_formula_sum   'Fe2 W2 O8'
_cell_volume   142.05432808
_cell_formula_units_Z   2
loop_
 _symmetry_equiv_pos_site_id
 _symmetry_equiv_pos_as_xyz
  1  'x, y, z'
loop_
 _atom_site_type_symbol
 _atom_site_label
 _atom_site_symmetry_multiplicity
 _atom_site_fract_x
 _atom_site_fract_y
 _atom_site_fract_z
 _atom_site_occupancy
  O  O0  1  0.74430643  0.39289406  0.37369810  1
  O  O1  1  0.25569357  0.10710594  0.37369810  1
  O  O2  1  0.25569357  0.60710594  0.62630190  1
  O  O3  1  0.74430643  0.89289406  0.62630190  1
  O  O4  1  0.78868507  0.43313721  0.89015976  1
  O  O5  1  0.21131493  0.06686279  0.89015976  1
  O  O6  1  0.21131493  0.56686279  0.10984024  1
  O  O7  1  0.78868507  0.93313721  0.10984024  1
  Fe  Fe8  1  0.50000000  0.75000000  0.33402446  1
  Fe  Fe9  1  0.50000000  0.25000000  0.66597554  1
  W  W10  1  0.00000000  0.75000000  0.82722602  1
  W  W11  1  0.00000000  0.25000000  0.17277398  1
