# generated using pymatgen
data_Ni(AgO)2
_symmetry_space_group_name_H-M   'P 1'
_cell_length_a   7.98226464
_cell_length_b   7.98226464
_cell_length_c   7.98226464
_cell_angle_alpha   21.89031943
_cell_angle_beta   21.89031945
_cell_angle_gamma   21.89031943
_symmetry_Int_Tables_number   1
_chemical_formula_structural   Ni(AgO)2
_chemical_formula_sum   'Ni1 Ag2 O2'
_cell_volume   61.97005356
_cell_formula_units_Z   1
loop_
 _symmetry_equiv_pos_site_id
 _symmetry_equiv_pos_as_xyz
  1  'x, y, z'
loop_
 _atom_site_type_symbol
 _atom_site_label
 _atom_site_symmetry_multiplicity
 _atom_site_fract_x
 _atom_site_fract_y
 _atom_site_fract_z
 _atom_site_occupancy
  O  O0  1  0.38012289  0.38012289  0.38012289  1
  O  O1  1  0.61987711  0.61987711  0.61987711  1
  Ni  Ni2  1  0.00000000  0.00000000  0.00000000  1
  Ag  Ag3  1  0.78508903  0.78508903  0.78508903  1
  Ag  Ag4  1  0.21491097  0.21491097  0.21491097  1
