# generated using pymatgen
data_Zr2Al3
_symmetry_space_group_name_H-M   'P 1'
_cell_length_a   5.57026639
_cell_length_b   5.57026639
_cell_length_c   7.52015224
_cell_angle_alpha   100.75896395
_cell_angle_beta   100.75896396
_cell_angle_gamma   119.73244647
_symmetry_Int_Tables_number   1
_chemical_formula_structural   Zr2Al3
_chemical_formula_sum   'Zr4 Al6'
_cell_volume   188.08677605
_cell_formula_units_Z   2
loop_
 _symmetry_equiv_pos_site_id
 _symmetry_equiv_pos_as_xyz
  1  'x, y, z'
loop_
 _atom_site_type_symbol
 _atom_site_label
 _atom_site_symmetry_multiplicity
 _atom_site_fract_x
 _atom_site_fract_y
 _atom_site_fract_z
 _atom_site_occupancy
  Al  Al0  1  0.12988138  0.12988138  0.00000000  1
  Al  Al1  1  0.37988138  0.87988138  0.50000000  1
  Al  Al2  1  0.45651125  0.31990479  0.77034054  1
  Al  Al3  1  0.54956425  0.68617071  0.22965946  1
  Al  Al4  1  0.56990479  0.20651125  0.27034054  1
  Al  Al5  1  0.93617071  0.29956425  0.72965946  1
  Zr  Zr6  1  0.86461186  0.72991197  0.60548071  1
  Zr  Zr7  1  0.12443126  0.25913116  0.39451929  1
  Zr  Zr8  1  0.97991197  0.61461186  0.10548071  1
  Zr  Zr9  1  0.50913116  0.87443126  0.89451929  1
