# generated using pymatgen
data_Sb2O5
_symmetry_space_group_name_H-M   'P 1'
_cell_length_a   4.89088365
_cell_length_b   5.51956071
_cell_length_c   6.88058871
_cell_angle_alpha   102.65603635
_cell_angle_beta   110.81867952
_cell_angle_gamma   90.00000003
_symmetry_Int_Tables_number   1
_chemical_formula_structural   Sb2O5
_chemical_formula_sum   'Sb4 O10'
_cell_volume   168.78078403
_cell_formula_units_Z   2
loop_
 _symmetry_equiv_pos_site_id
 _symmetry_equiv_pos_as_xyz
  1  'x, y, z'
loop_
 _atom_site_type_symbol
 _atom_site_label
 _atom_site_symmetry_multiplicity
 _atom_site_fract_x
 _atom_site_fract_y
 _atom_site_fract_z
 _atom_site_occupancy
  O  O0  1  0.58028582  0.25000000  0.00000000  1
  O  O1  1  0.41971418  0.75000000  0.00000000  1
  O  O2  1  0.18935870  0.45037702  0.20373795  1
  O  O3  1  0.98562075  0.04962298  0.79626205  1
  O  O4  1  0.78200213  0.62313799  0.40501461  1
  O  O5  1  0.37698752  0.87686201  0.59498539  1
  O  O6  1  0.21799787  0.37686201  0.59498539  1
  O  O7  1  0.62301248  0.12313799  0.40501461  1
  O  O8  1  0.01437925  0.95037702  0.20373795  1
  O  O9  1  0.81064130  0.54962298  0.79626205  1
  Sb  Sb10  1  0.62295180  0.21746968  0.72371673  1
  Sb  Sb11  1  0.89923507  0.28253032  0.27628327  1
  Sb  Sb12  1  0.37704820  0.78253032  0.27628327  1
  Sb  Sb13  1  0.10076493  0.71746968  0.72371673  1
