# generated using pymatgen
data_Sb3Ir
_symmetry_space_group_name_H-M   'P 1'
_cell_length_a   8.13597499
_cell_length_b   8.13597499
_cell_length_c   8.13597499
_cell_angle_alpha   109.47122062
_cell_angle_beta   109.47122062
_cell_angle_gamma   109.47122065
_symmetry_Int_Tables_number   1
_chemical_formula_structural   Sb3Ir
_chemical_formula_sum   'Sb12 Ir4'
_cell_volume   414.57864108
_cell_formula_units_Z   4
loop_
 _symmetry_equiv_pos_site_id
 _symmetry_equiv_pos_as_xyz
  1  'x, y, z'
loop_
 _atom_site_type_symbol
 _atom_site_label
 _atom_site_symmetry_multiplicity
 _atom_site_fract_x
 _atom_site_fract_y
 _atom_site_fract_z
 _atom_site_occupancy
  Sb  Sb0  1  0.50626160  0.84603209  0.66022951  1
  Sb  Sb1  1  0.18580258  0.84603209  0.33977049  1
  Sb  Sb2  1  0.81419742  0.15396791  0.66022951  1
  Sb  Sb3  1  0.15396791  0.33977049  0.49373840  1
  Sb  Sb4  1  0.49373840  0.15396791  0.33977049  1
  Sb  Sb5  1  0.15396791  0.66022951  0.81419742  1
  Sb  Sb6  1  0.33977049  0.18580258  0.84603209  1
  Sb  Sb7  1  0.84603209  0.66022951  0.50626160  1
  Sb  Sb8  1  0.66022951  0.81419742  0.15396791  1
  Sb  Sb9  1  0.84603209  0.33977049  0.18580258  1
  Sb  Sb10  1  0.66022951  0.50626160  0.84603209  1
  Sb  Sb11  1  0.33977049  0.49373840  0.15396791  1
  Ir  Ir12  1  0.50000000  0.00000000  0.00000000  1
  Ir  Ir13  1  0.00000000  0.00000000  0.50000000  1
  Ir  Ir14  1  0.00000000  0.50000000  0.00000000  1
  Ir  Ir15  1  0.50000000  0.50000000  0.50000000  1
