# generated using pymatgen
data_InNi
_symmetry_space_group_name_H-M   'P 1'
_cell_length_a   4.37294272
_cell_length_b   5.27195441
_cell_length_c   5.27213738
_cell_angle_alpha   119.99885317
_cell_angle_beta   90.00000000
_cell_angle_gamma   90.00000000
_symmetry_Int_Tables_number   1
_chemical_formula_structural   InNi
_chemical_formula_sum   'In3 Ni3'
_cell_volume   105.26107547
_cell_formula_units_Z   3
loop_
 _symmetry_equiv_pos_site_id
 _symmetry_equiv_pos_as_xyz
  1  'x, y, z'
loop_
 _atom_site_type_symbol
 _atom_site_label
 _atom_site_symmetry_multiplicity
 _atom_site_fract_x
 _atom_site_fract_y
 _atom_site_fract_z
 _atom_site_occupancy
  In  In0  1  -0.00000000  0.00002940  1.00000000  1
  In  In1  1  0.50000000  0.33322083  0.66649428  1
  In  In2  1  0.50000000  0.66672655  0.33350572  1
  Ni  Ni3  1  0.00000000  0.49997699  -0.00000000  1
  Ni  Ni4  1  -0.00000000  0.49997057  0.49999491  1
  Ni  Ni5  1  -0.00000000  0.99997566  0.50000509  1
