# generated using pymatgen
data_TaSb2
_symmetry_space_group_name_H-M   'P 1'
_cell_length_a   3.69243658
_cell_length_b   5.49406973
_cell_length_c   7.52604344
_cell_angle_alpha   78.54036054
_cell_angle_beta   75.79980962
_cell_angle_gamma   70.36430635
_symmetry_Int_Tables_number   1
_chemical_formula_structural   TaSb2
_chemical_formula_sum   'Ta2 Sb4'
_cell_volume   138.27048219
_cell_formula_units_Z   2
loop_
 _symmetry_equiv_pos_site_id
 _symmetry_equiv_pos_as_xyz
  1  'x, y, z'
loop_
 _atom_site_type_symbol
 _atom_site_label
 _atom_site_symmetry_multiplicity
 _atom_site_fract_x
 _atom_site_fract_y
 _atom_site_fract_z
 _atom_site_occupancy
  Sb  Sb0  1  0.14841133  0.73795590  0.96522145  1
  Sb  Sb1  1  0.85158867  0.26204410  0.03477855  1
  Sb  Sb2  1  0.40523927  0.80198949  0.38753196  1
  Sb  Sb3  1  0.59476073  0.19801051  0.61246804  1
  Ta  Ta4  1  0.84927327  0.61285018  0.68860328  1
  Ta  Ta5  1  0.15072673  0.38714982  0.31139672  1
