# generated using pymatgen
data_Nb3Si
_symmetry_space_group_name_H-M   'P 1'
_cell_length_a   5.21885091
_cell_length_b   10.27424162
_cell_length_c   10.27424162
_cell_angle_alpha   90.00000000
_cell_angle_beta   90.00000000
_cell_angle_gamma   90.00000000
_symmetry_Int_Tables_number   1
_chemical_formula_structural   Nb3Si
_chemical_formula_sum   'Nb24 Si8'
_cell_volume   550.90211533
_cell_formula_units_Z   8
loop_
 _symmetry_equiv_pos_site_id
 _symmetry_equiv_pos_as_xyz
  1  'x, y, z'
loop_
 _atom_site_type_symbol
 _atom_site_label
 _atom_site_symmetry_multiplicity
 _atom_site_fract_x
 _atom_site_fract_y
 _atom_site_fract_z
 _atom_site_occupancy
  Nb  Nb0  1  0.52318042  0.10390650  0.26594650  1
  Nb  Nb1  1  0.02318042  0.73405350  0.60390650  1
  Nb  Nb2  1  0.02318042  0.76594650  0.89609350  1
  Nb  Nb3  1  0.52318042  0.39609350  0.23405350  1
  Nb  Nb4  1  0.47681958  0.89609350  0.73405350  1
  Nb  Nb5  1  0.97681958  0.26594650  0.39609350  1
  Nb  Nb6  1  0.97681958  0.23405350  0.10390650  1
  Nb  Nb7  1  0.47681958  0.60390650  0.76594650  1
  Nb  Nb8  1  0.23579425  0.05994024  0.53634080  1
  Nb  Nb9  1  0.73579425  0.46365920  0.55994024  1
  Nb  Nb10  1  0.73579425  0.03634080  0.94005976  1
  Nb  Nb11  1  0.23579425  0.44005976  0.96365920  1
  Nb  Nb12  1  0.76420575  0.94005976  0.46365920  1
  Nb  Nb13  1  0.26420575  0.53634080  0.44005976  1
  Nb  Nb14  1  0.26420575  0.96365920  0.05994024  1
  Nb  Nb15  1  0.76420575  0.55994024  0.03634080  1
  Nb  Nb16  1  0.28366920  0.66503111  0.15328908  1
  Nb  Nb17  1  0.78366920  0.84671092  0.16503111  1
  Nb  Nb18  1  0.78366920  0.65328908  0.33496889  1
  Nb  Nb19  1  0.28366920  0.83496889  0.34671092  1
  Nb  Nb20  1  0.71633080  0.33496889  0.84671092  1
  Nb  Nb21  1  0.21633080  0.15328908  0.83496889  1
  Nb  Nb22  1  0.21633080  0.34671092  0.66503111  1
  Nb  Nb23  1  0.71633080  0.16503111  0.65328908  1
  Si  Si24  1  0.97061768  0.54434287  0.77783241  1
  Si  Si25  1  0.47061768  0.22216759  0.04434287  1
  Si  Si26  1  0.47061768  0.27783241  0.45565713  1
  Si  Si27  1  0.97061768  0.95565713  0.72216759  1
  Si  Si28  1  0.02938232  0.45565713  0.22216759  1
  Si  Si29  1  0.52938232  0.77783241  0.95565713  1
  Si  Si30  1  0.52938232  0.72216759  0.54434287  1
  Si  Si31  1  0.02938232  0.04434287  0.27783241  1
