# generated using pymatgen
data_Mg(P2Rh3)2
_symmetry_space_group_name_H-M   'P 1'
_cell_length_a   7.11157117
_cell_length_b   7.11157116
_cell_length_c   3.54038141
_cell_angle_alpha   90.00000000
_cell_angle_beta   90.00000000
_cell_angle_gamma   119.99999998
_symmetry_Int_Tables_number   1
_chemical_formula_structural   Mg(P2Rh3)2
_chemical_formula_sum   'Mg1 P4 Rh6'
_cell_volume   155.06429337
_cell_formula_units_Z   1
loop_
 _symmetry_equiv_pos_site_id
 _symmetry_equiv_pos_as_xyz
  1  'x, y, z'
loop_
 _atom_site_type_symbol
 _atom_site_label
 _atom_site_symmetry_multiplicity
 _atom_site_fract_x
 _atom_site_fract_y
 _atom_site_fract_z
 _atom_site_occupancy
  Mg  Mg0  1  0.00000000  0.00000000  0.00000000  1
  P  P1  1  0.81223001  0.18776999  0.50000000  1
  P  P2  1  0.37553999  0.18776999  0.50000000  1
  P  P3  1  0.33333333  0.66666667  0.00000000  1
  P  P4  1  0.81223001  0.62446001  0.50000000  1
  Rh  Rh5  1  0.19128839  0.80871161  0.50000000  1
  Rh  Rh6  1  0.19128839  0.38257678  0.50000000  1
  Rh  Rh7  1  0.53429743  0.06859487  0.00000000  1
  Rh  Rh8  1  0.93140513  0.46570257  0.00000000  1
  Rh  Rh9  1  0.53429743  0.46570257  0.00000000  1
  Rh  Rh10  1  0.61742322  0.80871161  0.50000000  1
