# generated using pymatgen
data_SrCuP
_symmetry_space_group_name_H-M   'P 1'
_cell_length_a   4.12973208
_cell_length_b   4.12973208
_cell_length_c   8.51533023
_cell_angle_alpha   90.00000000
_cell_angle_beta   90.00000000
_cell_angle_gamma   120.00000001
_symmetry_Int_Tables_number   1
_chemical_formula_structural   SrCuP
_chemical_formula_sum   'Sr2 Cu2 P2'
_cell_volume   125.76965829
_cell_formula_units_Z   2
loop_
 _symmetry_equiv_pos_site_id
 _symmetry_equiv_pos_as_xyz
  1  'x, y, z'
loop_
 _atom_site_type_symbol
 _atom_site_label
 _atom_site_symmetry_multiplicity
 _atom_site_fract_x
 _atom_site_fract_y
 _atom_site_fract_z
 _atom_site_occupancy
  P  P0  1  0.66666667  0.33333333  0.75000000  1
  P  P1  1  0.33333333  0.66666667  0.25000000  1
  Cu  Cu2  1  0.66666667  0.33333333  0.25000000  1
  Cu  Cu3  1  0.33333333  0.66666667  0.75000000  1
  Sr  Sr4  1  0.00000000  0.00000000  0.00000000  1
  Sr  Sr5  1  0.00000000  0.00000000  0.50000000  1
