# generated using pymatgen
data_Co2B4Mo
_symmetry_space_group_name_H-M   'P 1'
_cell_length_a   3.02824873
_cell_length_b   3.07111531
_cell_length_c   6.59259546
_cell_angle_alpha   103.46913775
_cell_angle_beta   103.27767046
_cell_angle_gamma   90.00000003
_symmetry_Int_Tables_number   1
_chemical_formula_structural   Co2B4Mo
_chemical_formula_sum   'Co2 B4 Mo1'
_cell_volume   57.93881201
_cell_formula_units_Z   1
loop_
 _symmetry_equiv_pos_site_id
 _symmetry_equiv_pos_as_xyz
  1  'x, y, z'
loop_
 _atom_site_type_symbol
 _atom_site_label
 _atom_site_symmetry_multiplicity
 _atom_site_fract_x
 _atom_site_fract_y
 _atom_site_fract_z
 _atom_site_occupancy
  B  B0  1  0.92499093  0.42499093  0.84998185  1
  B  B1  1  0.07500907  0.57500907  0.15001815  1
  B  B2  1  0.34836112  0.34836112  0.69672224  1
  B  B3  1  0.65163888  0.65163888  0.30327776  1
  Co  Co4  1  0.81441563  0.81441563  0.62883126  1
  Co  Co5  1  0.18558437  0.18558437  0.37116874  1
  Mo  Mo6  1  0.50000000  0.00000000  0.00000000  1
