# generated using pymatgen
data_Rb2HfF6
_symmetry_space_group_name_H-M   'P 1'
_cell_length_a   6.22337127
_cell_length_b   6.22337126
_cell_length_c   4.92576930
_cell_angle_alpha   90.00000000
_cell_angle_beta   90.00000000
_cell_angle_gamma   119.99999999
_symmetry_Int_Tables_number   1
_chemical_formula_structural   Rb2HfF6
_chemical_formula_sum   'Rb2 Hf1 F6'
_cell_volume   165.21752805
_cell_formula_units_Z   1
loop_
 _symmetry_equiv_pos_site_id
 _symmetry_equiv_pos_as_xyz
  1  'x, y, z'
loop_
 _atom_site_type_symbol
 _atom_site_label
 _atom_site_symmetry_multiplicity
 _atom_site_fract_x
 _atom_site_fract_y
 _atom_site_fract_z
 _atom_site_occupancy
  F  F0  1  0.84427114  0.15572886  0.77444111  1
  F  F1  1  0.84427114  0.68854227  0.77444111  1
  F  F2  1  0.31145773  0.15572886  0.77444111  1
  F  F3  1  0.15572886  0.84427114  0.22555889  1
  F  F4  1  0.15572886  0.31145773  0.22555889  1
  F  F5  1  0.68854227  0.84427114  0.22555889  1
  Rb  Rb6  1  0.33333333  0.66666667  0.68768079  1
  Rb  Rb7  1  0.66666667  0.33333333  0.31231921  1
  Hf  Hf8  1  0.00000000  0.00000000  0.00000000  1
