# generated using pymatgen
data_HfPRu
_symmetry_space_group_name_H-M   'P 1'
_cell_length_a   6.43576534
_cell_length_b   6.43576533
_cell_length_c   3.79274962
_cell_angle_alpha   90.00000000
_cell_angle_beta   90.00000000
_cell_angle_gamma   120.00000003
_symmetry_Int_Tables_number   1
_chemical_formula_structural   HfPRu
_chemical_formula_sum   'Hf3 P3 Ru3'
_cell_volume   136.04582096
_cell_formula_units_Z   3
loop_
 _symmetry_equiv_pos_site_id
 _symmetry_equiv_pos_as_xyz
  1  'x, y, z'
loop_
 _atom_site_type_symbol
 _atom_site_label
 _atom_site_symmetry_multiplicity
 _atom_site_fract_x
 _atom_site_fract_y
 _atom_site_fract_z
 _atom_site_occupancy
  P  P0  1  0.66666667  0.33333333  0.00000000  1
  P  P1  1  0.33333333  0.66666667  0.00000000  1
  P  P2  1  0.00000000  0.00000000  0.50000000  1
  Ru  Ru3  1  0.24663934  0.00000000  0.00000000  1
  Ru  Ru4  1  0.75336066  0.75336066  0.00000000  1
  Ru  Ru5  1  0.00000000  0.24663934  0.00000000  1
  Hf  Hf6  1  0.00000000  0.58372729  0.50000000  1
  Hf  Hf7  1  0.41627271  0.41627271  0.50000000  1
  Hf  Hf8  1  0.58372729  0.00000000  0.50000000  1
