# generated using pymatgen
data_HfSb
_symmetry_space_group_name_H-M   'P 1'
_cell_length_a   3.76963697
_cell_length_b   5.56373245
_cell_length_c   14.06665115
_cell_angle_alpha   90.00000000
_cell_angle_beta   90.00000000
_cell_angle_gamma   109.80187516
_symmetry_Int_Tables_number   1
_chemical_formula_structural   HfSb
_chemical_formula_sum   'Hf6 Sb6'
_cell_volume   277.57858455
_cell_formula_units_Z   6
loop_
 _symmetry_equiv_pos_site_id
 _symmetry_equiv_pos_as_xyz
  1  'x, y, z'
loop_
 _atom_site_type_symbol
 _atom_site_label
 _atom_site_symmetry_multiplicity
 _atom_site_fract_x
 _atom_site_fract_y
 _atom_site_fract_z
 _atom_site_occupancy
  Sb  Sb0  1  0.32448180  0.64896361  0.25000000  1
  Sb  Sb1  1  0.67551820  0.35103639  0.75000000  1
  Sb  Sb2  1  0.35757472  0.71514945  0.54961476  1
  Sb  Sb3  1  0.64242528  0.28485055  0.45038524  1
  Sb  Sb4  1  0.64242528  0.28485055  0.04961476  1
  Sb  Sb5  1  0.35757472  0.71514945  0.95038524  1
  Hf  Hf6  1  0.61152238  0.22304476  0.25000000  1
  Hf  Hf7  1  0.38847762  0.77695524  0.75000000  1
  Hf  Hf8  1  0.07157461  0.14314922  0.60847547  1
  Hf  Hf9  1  0.92842539  0.85685078  0.39152453  1
  Hf  Hf10  1  0.92842539  0.85685078  0.10847547  1
  Hf  Hf11  1  0.07157461  0.14314922  0.89152453  1
