# generated using pymatgen
data_Ca3(AlGe)2
_symmetry_space_group_name_H-M   'P 1'
_cell_length_a   4.12674696
_cell_length_b   4.56400774
_cell_length_c   9.82653438
_cell_angle_alpha   103.42359619
_cell_angle_beta   102.12116701
_cell_angle_gamma   90.00000006
_symmetry_Int_Tables_number   1
_chemical_formula_structural   Ca3(AlGe)2
_chemical_formula_sum   'Ca3 Al2 Ge2'
_cell_volume   175.77682115
_cell_formula_units_Z   1
loop_
 _symmetry_equiv_pos_site_id
 _symmetry_equiv_pos_as_xyz
  1  'x, y, z'
loop_
 _atom_site_type_symbol
 _atom_site_label
 _atom_site_symmetry_multiplicity
 _atom_site_fract_x
 _atom_site_fract_y
 _atom_site_fract_z
 _atom_site_occupancy
  Al  Al0  1  0.93198542  0.43188566  0.86397083  1
  Al  Al1  1  0.06801458  0.56811434  0.13602917  1
  Ca  Ca2  1  0.50000000  0.00000000  0.00000000  1
  Ca  Ca3  1  0.18577269  0.18578653  0.37154537  1
  Ca  Ca4  1  0.81422731  0.81421347  0.62845463  1
  Ge  Ge5  1  0.35400583  0.35397414  0.70801166  1
  Ge  Ge6  1  0.64599417  0.64602586  0.29198834  1
