# generated using pymatgen
data_Ti2Ni
_symmetry_space_group_name_H-M   'P 1'
_cell_length_a   7.97429775
_cell_length_b   7.97429775
_cell_length_c   7.97429775
_cell_angle_alpha   60.00000004
_cell_angle_beta   60.00000004
_cell_angle_gamma   60.00000001
_symmetry_Int_Tables_number   1
_chemical_formula_structural   Ti2Ni
_chemical_formula_sum   'Ti16 Ni8'
_cell_volume   358.56041780
_cell_formula_units_Z   8
loop_
 _symmetry_equiv_pos_site_id
 _symmetry_equiv_pos_as_xyz
  1  'x, y, z'
loop_
 _atom_site_type_symbol
 _atom_site_label
 _atom_site_symmetry_multiplicity
 _atom_site_fract_x
 _atom_site_fract_y
 _atom_site_fract_z
 _atom_site_occupancy
  Ti  Ti0  1  0.06184020  0.68815980  0.68815980  1
  Ti  Ti1  1  0.31184020  0.93815980  0.93815980  1
  Ti  Ti2  1  0.68815980  0.06184020  0.68815980  1
  Ti  Ti3  1  0.68815980  0.68815980  0.06184020  1
  Ti  Ti4  1  0.06184020  0.06184020  0.68815980  1
  Ti  Ti5  1  0.06184020  0.68815980  0.06184020  1
  Ti  Ti6  1  0.31184020  0.93815980  0.31184020  1
  Ti  Ti7  1  0.93815980  0.31184020  0.93815980  1
  Ti  Ti8  1  0.50000000  0.50000000  0.50000000  1
  Ti  Ti9  1  0.50000000  0.50000000  0.00000000  1
  Ti  Ti10  1  0.00000000  0.50000000  0.50000000  1
  Ti  Ti11  1  0.50000000  0.00000000  0.50000000  1
  Ti  Ti12  1  0.68815980  0.06184020  0.06184020  1
  Ti  Ti13  1  0.93815980  0.93815980  0.31184020  1
  Ti  Ti14  1  0.31184020  0.31184020  0.93815980  1
  Ti  Ti15  1  0.93815980  0.31184020  0.31184020  1
  Ni  Ni16  1  0.28541304  0.28541304  0.28541304  1
  Ni  Ni17  1  0.71458696  0.71458696  0.35623913  1
  Ni  Ni18  1  0.71458696  0.35623913  0.71458696  1
  Ni  Ni19  1  0.35623913  0.71458696  0.71458696  1
  Ni  Ni20  1  0.28541304  0.64376087  0.28541304  1
  Ni  Ni21  1  0.64376087  0.28541304  0.28541304  1
  Ni  Ni22  1  0.28541304  0.28541304  0.64376087  1
  Ni  Ni23  1  0.71458696  0.71458696  0.71458696  1
