# generated using pymatgen
data_Al2O3
_symmetry_space_group_name_H-M   'P 1'
_cell_length_a   5.17795458
_cell_length_b   5.17795409
_cell_length_c   5.17795582
_cell_angle_alpha   55.28962816
_cell_angle_beta   55.28960686
_cell_angle_gamma   55.28959369
_symmetry_Int_Tables_number   1
_chemical_formula_structural   Al2O3
_chemical_formula_sum   'Al4 O6'
_cell_volume   87.42000774
_cell_formula_units_Z   2
loop_
 _symmetry_equiv_pos_site_id
 _symmetry_equiv_pos_as_xyz
  1  'x, y, z'
loop_
 _atom_site_type_symbol
 _atom_site_label
 _atom_site_symmetry_multiplicity
 _atom_site_fract_x
 _atom_site_fract_y
 _atom_site_fract_z
 _atom_site_occupancy
  O  O0  1  0.44385481  0.05614487  0.75000128  1
  O  O1  1  0.94385457  0.25000056  0.55614496  1
  Al  Al2  1  0.64790377  0.64790282  0.64790338  1
  Al  Al3  1  0.85209669  0.85209662  0.85209675  1
  O  O4  1  0.05614433  0.75000028  0.44385546  1
  O  O5  1  0.75000081  0.44385558  0.05614446  1
  Al  Al6  1  0.14790403  0.14790313  0.14790311  1
  Al  Al7  1  0.35209682  0.35209650  0.35209650  1
  O  O8  1  0.24999993  0.55614394  0.94385521  1
  O  O9  1  0.55614423  0.94385571  0.24999889  1
