# generated using pymatgen
data_AlPt2
_symmetry_space_group_name_H-M   'P 1'
_cell_length_a   3.95962454
_cell_length_b   5.51045538
_cell_length_c   16.49818916
_cell_angle_alpha   90.00000000
_cell_angle_beta   90.00000000
_cell_angle_gamma   90.00000000
_symmetry_Int_Tables_number   1
_chemical_formula_structural   AlPt2
_chemical_formula_sum   'Al8 Pt16'
_cell_volume   359.97950544
_cell_formula_units_Z   8
loop_
 _symmetry_equiv_pos_site_id
 _symmetry_equiv_pos_as_xyz
  1  'x, y, z'
loop_
 _atom_site_type_symbol
 _atom_site_label
 _atom_site_symmetry_multiplicity
 _atom_site_fract_x
 _atom_site_fract_y
 _atom_site_fract_z
 _atom_site_occupancy
  Al  Al0  1  0.00000000  0.20369374  0.75000000  1
  Al  Al1  1  0.00000000  0.79630626  0.25000000  1
  Al  Al2  1  0.00000000  0.68731751  0.59156973  1
  Al  Al3  1  0.00000000  0.31268249  0.40843027  1
  Al  Al4  1  0.00000000  0.68731751  0.90843027  1
  Al  Al5  1  0.00000000  0.31268249  0.09156973  1
  Al  Al6  1  0.50000000  0.00000000  0.50000000  1
  Al  Al7  1  0.50000000  0.00000000  0.00000000  1
  Pt  Pt8  1  0.50000000  0.05420926  0.34360147  1
  Pt  Pt9  1  0.50000000  0.94579074  0.65639853  1
  Pt  Pt10  1  0.50000000  0.55850928  0.16757651  1
  Pt  Pt11  1  0.50000000  0.44149072  0.83242349  1
  Pt  Pt12  1  0.50000000  0.55850928  0.33242349  1
  Pt  Pt13  1  0.50000000  0.44149072  0.66757651  1
  Pt  Pt14  1  0.00000000  0.27536136  0.25000000  1
  Pt  Pt15  1  0.00000000  0.72463864  0.75000000  1
  Pt  Pt16  1  0.50000000  0.94579074  0.84360147  1
  Pt  Pt17  1  0.50000000  0.05420926  0.15639853  1
  Pt  Pt18  1  0.50000000  0.50000000  0.50000000  1
  Pt  Pt19  1  0.50000000  0.50000000  0.00000000  1
  Pt  Pt20  1  0.00000000  0.20061095  0.56901140  1
  Pt  Pt21  1  0.00000000  0.79938905  0.43098860  1
  Pt  Pt22  1  0.00000000  0.20061095  0.93098860  1
  Pt  Pt23  1  0.00000000  0.79938905  0.06901140  1
