# generated using pymatgen
data_Rb2PdF6
_symmetry_space_group_name_H-M   'P 1'
_cell_length_a   6.21072014
_cell_length_b   6.21072014
_cell_length_c   6.21072014
_cell_angle_alpha   60.00000000
_cell_angle_beta   60.00000001
_cell_angle_gamma   60.00000003
_symmetry_Int_Tables_number   1
_chemical_formula_structural   Rb2PdF6
_chemical_formula_sum   'Rb2 Pd1 F6'
_cell_volume   169.39901571
_cell_formula_units_Z   1
loop_
 _symmetry_equiv_pos_site_id
 _symmetry_equiv_pos_as_xyz
  1  'x, y, z'
loop_
 _atom_site_type_symbol
 _atom_site_label
 _atom_site_symmetry_multiplicity
 _atom_site_fract_x
 _atom_site_fract_y
 _atom_site_fract_z
 _atom_site_occupancy
  F  F0  1  0.22247538  0.77752462  0.77752462  1
  F  F1  1  0.22247538  0.77752462  0.22247538  1
  F  F2  1  0.77752462  0.22247538  0.77752462  1
  F  F3  1  0.77752462  0.22247538  0.22247538  1
  F  F4  1  0.77752462  0.77752462  0.22247538  1
  F  F5  1  0.22247538  0.22247538  0.77752462  1
  Rb  Rb6  1  0.25000000  0.25000000  0.25000000  1
  Rb  Rb7  1  0.75000000  0.75000000  0.75000000  1
  Pd  Pd8  1  0.00000000  0.00000000  0.00000000  1
