# generated using pymatgen
data_Cu2GeTe3
_symmetry_space_group_name_H-M   'P 1'
_cell_length_a   4.35201084
_cell_length_b   5.95210598
_cell_length_c   7.36962577
_cell_angle_alpha   113.81763438
_cell_angle_beta   107.17353327
_cell_angle_gamma   90.00000003
_symmetry_Int_Tables_number   1
_chemical_formula_structural   Cu2GeTe3
_chemical_formula_sum   'Cu2 Ge1 Te3'
_cell_volume   165.29579475
_cell_formula_units_Z   1
loop_
 _symmetry_equiv_pos_site_id
 _symmetry_equiv_pos_as_xyz
  1  'x, y, z'
loop_
 _atom_site_type_symbol
 _atom_site_label
 _atom_site_symmetry_multiplicity
 _atom_site_fract_x
 _atom_site_fract_y
 _atom_site_fract_z
 _atom_site_occupancy
  Cu  Cu0  1  0.83237295  0.56908551  0.66474589  1
  Cu  Cu1  1  0.16762705  0.90433961  0.33525411  1
  Ge  Ge2  1  0.50000000  0.26058534  0.00000000  1
  Te  Te3  1  0.67329602  0.67967927  0.34659205  1
  Te  Te4  1  0.32670398  0.33308722  0.65340795  1
  Te  Te5  1  0.00000000  0.98022305  0.00000000  1
