# generated using pymatgen
data_Ni3Mo
_symmetry_space_group_name_H-M   'P 1'
_cell_length_a   4.23580340
_cell_length_b   4.46213618
_cell_length_c   5.02450706
_cell_angle_alpha   90.00000000
_cell_angle_beta   90.00000000
_cell_angle_gamma   90.00000000
_symmetry_Int_Tables_number   1
_chemical_formula_structural   Ni3Mo
_chemical_formula_sum   'Ni6 Mo2'
_cell_volume   94.96685938
_cell_formula_units_Z   2
loop_
 _symmetry_equiv_pos_site_id
 _symmetry_equiv_pos_as_xyz
  1  'x, y, z'
loop_
 _atom_site_type_symbol
 _atom_site_label
 _atom_site_symmetry_multiplicity
 _atom_site_fract_x
 _atom_site_fract_y
 _atom_site_fract_z
 _atom_site_occupancy
  Ni  Ni0  1  0.75000000  0.84050639  0.00114676  1
  Ni  Ni1  1  0.75000000  0.84050639  0.49885324  1
  Ni  Ni2  1  0.25000000  0.15949361  0.99885324  1
  Ni  Ni3  1  0.25000000  0.15949361  0.50114676  1
  Ni  Ni4  1  0.25000000  0.66220539  0.75000000  1
  Ni  Ni5  1  0.75000000  0.33779461  0.25000000  1
  Mo  Mo6  1  0.75000000  0.34299154  0.75000000  1
  Mo  Mo7  1  0.25000000  0.65700846  0.25000000  1
