# generated using pymatgen
data_Sn3Pd
_symmetry_space_group_name_H-M   'P 1'
_cell_length_a   6.57207719
_cell_length_b   6.59959011
_cell_length_c   9.33708122
_cell_angle_alpha   90.00000000
_cell_angle_beta   110.60566770
_cell_angle_gamma   90.00000000
_symmetry_Int_Tables_number   1
_chemical_formula_structural   Sn3Pd
_chemical_formula_sum   'Sn12 Pd4'
_cell_volume   379.06883171
_cell_formula_units_Z   4
loop_
 _symmetry_equiv_pos_site_id
 _symmetry_equiv_pos_as_xyz
  1  'x, y, z'
loop_
 _atom_site_type_symbol
 _atom_site_label
 _atom_site_symmetry_multiplicity
 _atom_site_fract_x
 _atom_site_fract_y
 _atom_site_fract_z
 _atom_site_occupancy
  Pd  Pd0  1  0.91483588  0.00000000  0.82967177  1
  Pd  Pd1  1  0.58516412  0.50000000  0.17032823  1
  Pd  Pd2  1  0.08516412  0.00000000  0.17032823  1
  Pd  Pd3  1  0.41483588  0.50000000  0.82967177  1
  Sn  Sn4  1  0.16018431  0.66214275  0.00000000  1
  Sn  Sn5  1  0.66018431  0.83785725  0.00000000  1
  Sn  Sn6  1  0.33981569  0.16214275  0.00000000  1
  Sn  Sn7  1  0.83981569  0.33785725  0.00000000  1
  Sn  Sn8  1  0.16172464  0.82973790  0.66459719  1
  Sn  Sn9  1  0.99712745  0.67026210  0.33540281  1
  Sn  Sn10  1  0.33827536  0.32973790  0.33540281  1
  Sn  Sn11  1  0.50287255  0.17026210  0.66459719  1
  Sn  Sn12  1  0.83827536  0.17026210  0.33540281  1
  Sn  Sn13  1  0.00287255  0.32973790  0.66459719  1
  Sn  Sn14  1  0.66172464  0.67026210  0.66459719  1
  Sn  Sn15  1  0.49712745  0.82973790  0.33540281  1
