# generated using pymatgen
data_ZnP4
_symmetry_space_group_name_H-M   'P 1'
_cell_length_a   5.04590635
_cell_length_b   5.04590635
_cell_length_c   14.63366770
_cell_angle_alpha   90.00000000
_cell_angle_beta   90.00000000
_cell_angle_gamma   90.00000000
_symmetry_Int_Tables_number   1
_chemical_formula_structural   ZnP4
_chemical_formula_sum   'Zn4 P16'
_cell_volume   372.59031410
_cell_formula_units_Z   4
loop_
 _symmetry_equiv_pos_site_id
 _symmetry_equiv_pos_as_xyz
  1  'x, y, z'
loop_
 _atom_site_type_symbol
 _atom_site_label
 _atom_site_symmetry_multiplicity
 _atom_site_fract_x
 _atom_site_fract_y
 _atom_site_fract_z
 _atom_site_occupancy
  P  P0  1  0.92388092  0.31983074  0.29904608  1
  P  P1  1  0.07611908  0.68016926  0.79904608  1
  P  P2  1  0.31983074  0.92388092  0.70095392  1
  P  P3  1  0.81983074  0.57611908  0.04904608  1
  P  P4  1  0.09845468  0.98783791  0.37481506  1
  P  P5  1  0.51216209  0.59845468  0.62481506  1
  P  P6  1  0.48783791  0.40154532  0.12481506  1
  P  P7  1  0.59845468  0.51216209  0.37518494  1
  P  P8  1  0.40154532  0.48783791  0.87518494  1
  P  P9  1  0.90154532  0.01216209  0.87481506  1
  P  P10  1  0.98783791  0.09845468  0.62518494  1
  P  P11  1  0.01216209  0.90154532  0.12518494  1
  P  P12  1  0.68016926  0.07611908  0.20095392  1
  P  P13  1  0.42388092  0.18016926  0.45095392  1
  P  P14  1  0.57611908  0.81983074  0.95095392  1
  P  P15  1  0.18016926  0.42388092  0.54904608  1
  Zn  Zn16  1  0.80198040  0.80198040  0.50000000  1
  Zn  Zn17  1  0.69801960  0.30198040  0.75000000  1
  Zn  Zn18  1  0.30198040  0.69801960  0.25000000  1
  Zn  Zn19  1  0.19801960  0.19801960  0.00000000  1
