# generated using pymatgen
data_NiSbSe
_symmetry_space_group_name_H-M   'P 1'
_cell_length_a   6.12153330
_cell_length_b   6.12153330
_cell_length_c   6.12153330
_cell_angle_alpha   90.00000000
_cell_angle_beta   90.00000000
_cell_angle_gamma   90.00000000
_symmetry_Int_Tables_number   1
_chemical_formula_structural   NiSbSe
_chemical_formula_sum   'Ni4 Sb4 Se4'
_cell_volume   229.39325766
_cell_formula_units_Z   4
loop_
 _symmetry_equiv_pos_site_id
 _symmetry_equiv_pos_as_xyz
  1  'x, y, z'
loop_
 _atom_site_type_symbol
 _atom_site_label
 _atom_site_symmetry_multiplicity
 _atom_site_fract_x
 _atom_site_fract_y
 _atom_site_fract_z
 _atom_site_occupancy
  Ni  Ni0  1  0.99049316  0.99049316  0.99049316  1
  Ni  Ni1  1  0.50950684  0.00950684  0.49049316  1
  Ni  Ni2  1  0.49049316  0.50950684  0.00950684  1
  Ni  Ni3  1  0.00950684  0.49049316  0.50950684  1
  Se  Se4  1  0.87535150  0.12464850  0.62464850  1
  Se  Se5  1  0.12464850  0.62464850  0.87535150  1
  Se  Se6  1  0.62464850  0.87535150  0.12464850  1
  Se  Se7  1  0.37535150  0.37535150  0.37535150  1
  Sb  Sb8  1  0.36865431  0.13134569  0.86865431  1
  Sb  Sb9  1  0.86865431  0.36865431  0.13134569  1
  Sb  Sb10  1  0.63134569  0.63134569  0.63134569  1
  Sb  Sb11  1  0.13134569  0.86865431  0.36865431  1
