# generated using pymatgen
data_ZrAl
_symmetry_space_group_name_H-M   'P 1'
_cell_length_a   3.35523442
_cell_length_b   4.30527271
_cell_length_c   5.72849008
_cell_angle_alpha   90.00000000
_cell_angle_beta   107.02896091
_cell_angle_gamma   90.00000000
_symmetry_Int_Tables_number   1
_chemical_formula_structural   ZrAl
_chemical_formula_sum   'Zr2 Al2'
_cell_volume   79.12119545
_cell_formula_units_Z   2
loop_
 _symmetry_equiv_pos_site_id
 _symmetry_equiv_pos_as_xyz
  1  'x, y, z'
loop_
 _atom_site_type_symbol
 _atom_site_label
 _atom_site_symmetry_multiplicity
 _atom_site_fract_x
 _atom_site_fract_y
 _atom_site_fract_z
 _atom_site_occupancy
  Al  Al0  1  0.57113141  0.25000000  0.14226282  1
  Al  Al1  1  0.42886859  0.75000000  0.85773718  1
  Zr  Zr2  1  0.84003017  0.25000000  0.68006034  1
  Zr  Zr3  1  0.15996983  0.75000000  0.31993966  1
