# generated using pymatgen
data_ScPPt
_symmetry_space_group_name_H-M   'P 1'
_cell_length_a   3.85765905
_cell_length_b   6.65043112
_cell_length_c   7.47514870
_cell_angle_alpha   90.00000000
_cell_angle_beta   90.00000000
_cell_angle_gamma   90.00000000
_symmetry_Int_Tables_number   1
_chemical_formula_structural   ScPPt
_chemical_formula_sum   'Sc4 P4 Pt4'
_cell_volume   191.77565599
_cell_formula_units_Z   4
loop_
 _symmetry_equiv_pos_site_id
 _symmetry_equiv_pos_as_xyz
  1  'x, y, z'
loop_
 _atom_site_type_symbol
 _atom_site_label
 _atom_site_symmetry_multiplicity
 _atom_site_fract_x
 _atom_site_fract_y
 _atom_site_fract_z
 _atom_site_occupancy
  P  P0  1  0.25000000  0.75517064  0.37447199  1
  P  P1  1  0.25000000  0.25517064  0.12552801  1
  P  P2  1  0.75000000  0.24482936  0.62552801  1
  P  P3  1  0.75000000  0.74482936  0.87447199  1
  Sc  Sc4  1  0.75000000  0.53110725  0.18074467  1
  Sc  Sc5  1  0.25000000  0.96889275  0.68074467  1
  Sc  Sc6  1  0.75000000  0.03110725  0.31925533  1
  Sc  Sc7  1  0.25000000  0.46889275  0.81925533  1
  Pt  Pt8  1  0.25000000  0.84672264  0.06092409  1
  Pt  Pt9  1  0.25000000  0.34672264  0.43907591  1
  Pt  Pt10  1  0.75000000  0.65327736  0.56092409  1
  Pt  Pt11  1  0.75000000  0.15327736  0.93907591  1
