# generated using pymatgen
data_ReO3
_symmetry_space_group_name_H-M   'P 1'
_cell_length_a   5.36806112
_cell_length_b   5.36852850
_cell_length_c   13.15300679
_cell_angle_alpha   89.99273891
_cell_angle_beta   90.00000000
_cell_angle_gamma   119.99711271
_symmetry_Int_Tables_number   1
_chemical_formula_structural   ReO3
_chemical_formula_sum   'Re6 O18'
_cell_volume   328.27742707
_cell_formula_units_Z   6
loop_
 _symmetry_equiv_pos_site_id
 _symmetry_equiv_pos_as_xyz
  1  'x, y, z'
loop_
 _atom_site_type_symbol
 _atom_site_label
 _atom_site_symmetry_multiplicity
 _atom_site_fract_x
 _atom_site_fract_y
 _atom_site_fract_z
 _atom_site_occupancy
  Re  Re0  1  0.33328350  0.66657569  0.66648437  1
  Re  Re1  1  0.66671650  0.33342431  0.33351563  1
  Re  Re2  1  0.66670681  0.33342431  0.83351563  1
  Re  Re3  1  0.33329319  0.66657569  0.16648437  1
  Re  Re4  1  0.00000000  0.00000000  0.00000000  1
  Re  Re5  1  0.00000000  0.00000000  0.50000000  1
  O  O6  1  0.66646281  0.82434644  0.58333945  1
  O  O7  1  0.33353719  0.17565356  0.41666055  1
  O  O8  1  0.84211637  0.17565356  0.91666055  1
  O  O9  1  0.15788363  0.82434644  0.08333945  1
  O  O10  1  0.82427653  0.66638794  0.91662533  1
  O  O11  1  0.17572347  0.33361206  0.08337467  1
  O  O12  1  0.15788859  0.33361206  0.58337467  1
  O  O13  1  0.84211141  0.66638794  0.41662533  1
  O  O14  1  0.49108673  0.49101669  0.74998053  1
  O  O15  1  0.50891327  0.50898331  0.25001947  1
  O  O16  1  0.00006904  0.50898331  0.75001947  1
  O  O17  1  0.99993096  0.49101669  0.24998053  1
  O  O18  1  0.33350578  0.15785729  0.91662163  1
  O  O19  1  0.66649422  0.84214271  0.08337837  1
  O  O20  1  0.17564849  0.84214271  0.58337837  1
  O  O21  1  0.82435151  0.15785729  0.41662163  1
  O  O22  1  0.50901544  0.00000000  0.75000000  1
  O  O23  1  0.49098456  1.00000000  0.25000000  1
