# generated using pymatgen
data_Ta2O5
_symmetry_space_group_name_H-M   'P 1'
_cell_length_a   4.92996337
_cell_length_b   5.59861805
_cell_length_c   6.92842174
_cell_angle_alpha   102.29128386
_cell_angle_beta   110.84114843
_cell_angle_gamma   90.00000001
_symmetry_Int_Tables_number   1
_chemical_formula_structural   Ta2O5
_chemical_formula_sum   'Ta4 O10'
_cell_volume   174.02076794
_cell_formula_units_Z   2
loop_
 _symmetry_equiv_pos_site_id
 _symmetry_equiv_pos_as_xyz
  1  'x, y, z'
loop_
 _atom_site_type_symbol
 _atom_site_label
 _atom_site_symmetry_multiplicity
 _atom_site_fract_x
 _atom_site_fract_y
 _atom_site_fract_z
 _atom_site_occupancy
  O  O0  1  0.27320499  0.12756704  0.40943339  1
  O  O1  1  0.86377160  0.37243296  0.59056661  1
  O  O2  1  0.72679501  0.87243296  0.59056661  1
  O  O3  1  0.13622840  0.62756704  0.40943339  1
  O  O4  1  0.10877226  0.75000000  0.00000000  1
  O  O5  1  0.89122774  0.25000000  0.00000000  1
  O  O6  1  0.66210692  0.98331998  0.22363891  1
  O  O7  1  0.43846801  0.51668002  0.77636109  1
  O  O8  1  0.33789308  0.01668002  0.77636109  1
  O  O9  1  0.56153199  0.48331998  0.22363891  1
  Ta  Ta10  1  0.61264087  0.23077653  0.71795972  1
  Ta  Ta11  1  0.89468115  0.26922347  0.28204028  1
  Ta  Ta12  1  0.38735913  0.76922347  0.28204028  1
  Ta  Ta13  1  0.10531885  0.73077653  0.71795972  1
