# generated using pymatgen
data_NiMoO4
_symmetry_space_group_name_H-M   'P 1'
_cell_length_a   4.65740644
_cell_length_b   4.96613154
_cell_length_c   5.75124018
_cell_angle_alpha   90.00000000
_cell_angle_beta   90.00000000
_cell_angle_gamma   90.11950591
_symmetry_Int_Tables_number   1
_chemical_formula_structural   NiMoO4
_chemical_formula_sum   'Ni2 Mo2 O8'
_cell_volume   133.02182997
_cell_formula_units_Z   2
loop_
 _symmetry_equiv_pos_site_id
 _symmetry_equiv_pos_as_xyz
  1  'x, y, z'
loop_
 _atom_site_type_symbol
 _atom_site_label
 _atom_site_symmetry_multiplicity
 _atom_site_fract_x
 _atom_site_fract_y
 _atom_site_fract_z
 _atom_site_occupancy
  O  O0  1  0.74129833  0.90368722  0.62246507  1
  O  O1  1  0.25870167  0.59631278  0.62246507  1
  O  O2  1  0.25870167  0.09631278  0.37753493  1
  O  O3  1  0.74129833  0.40368722  0.37753493  1
  O  O4  1  0.77984737  0.93202884  0.10933222  1
  O  O5  1  0.22015263  0.56797116  0.10933222  1
  O  O6  1  0.22015263  0.06797116  0.89066778  1
  O  O7  1  0.77984737  0.43202884  0.89066778  1
  Ni  Ni8  1  0.50000000  0.25000000  0.66038010  1
  Ni  Ni9  1  0.50000000  0.75000000  0.33961990  1
  Mo  Mo10  1  0.00000000  0.25000000  0.18109378  1
  Mo  Mo11  1  0.00000000  0.75000000  0.81890622  1
