# generated using pymatgen
data_Y2C3
_symmetry_space_group_name_H-M   'P 1'
_cell_length_a   7.15713058
_cell_length_b   7.15713058
_cell_length_c   7.15713058
_cell_angle_alpha   109.47122061
_cell_angle_beta   109.47122062
_cell_angle_gamma   109.47122064
_symmetry_Int_Tables_number   1
_chemical_formula_structural   Y2C3
_chemical_formula_sum   'Y8 C12'
_cell_volume   282.22464269
_cell_formula_units_Z   4
loop_
 _symmetry_equiv_pos_site_id
 _symmetry_equiv_pos_as_xyz
  1  'x, y, z'
loop_
 _atom_site_type_symbol
 _atom_site_label
 _atom_site_symmetry_multiplicity
 _atom_site_fract_x
 _atom_site_fract_y
 _atom_site_fract_z
 _atom_site_occupancy
  C  C0  1  0.75000000  0.79409113  0.04409113  1
  C  C1  1  0.75000000  0.95590887  0.20590887  1
  C  C2  1  0.29409113  0.25000000  0.54409113  1
  C  C3  1  0.54409113  0.29409113  0.25000000  1
  C  C4  1  0.20590887  0.75000000  0.95590887  1
  C  C5  1  0.95590887  0.20590887  0.75000000  1
  C  C6  1  0.25000000  0.70590887  0.45590887  1
  C  C7  1  0.70590887  0.45590887  0.25000000  1
  C  C8  1  0.25000000  0.54409113  0.29409113  1
  C  C9  1  0.45590887  0.25000000  0.70590887  1
  C  C10  1  0.04409113  0.75000000  0.79409113  1
  C  C11  1  0.79409113  0.04409113  0.75000000  1
  Y  Y12  1  0.60132319  0.60132319  0.60132319  1
  Y  Y13  1  0.39867681  0.50000000  0.00000000  1
  Y  Y14  1  0.50000000  0.00000000  0.39867681  1
  Y  Y15  1  0.00000000  0.39867681  0.50000000  1
  Y  Y16  1  0.50000000  0.00000000  0.89867681  1
  Y  Y17  1  0.00000000  0.89867681  0.50000000  1
  Y  Y18  1  0.89867681  0.50000000  0.00000000  1
  Y  Y19  1  0.10132319  0.10132319  0.10132319  1
