# generated using pymatgen
data_K2PdF4
_symmetry_space_group_name_H-M   'P 1'
_cell_length_a   4.32743655
_cell_length_b   5.82813204
_cell_length_c   5.82813203
_cell_angle_alpha   62.45445213
_cell_angle_beta   87.47464442
_cell_angle_gamma   87.47464442
_symmetry_Int_Tables_number   1
_chemical_formula_structural   K2PdF4
_chemical_formula_sum   'K2 Pd1 F4'
_cell_volume   130.15510391
_cell_formula_units_Z   1
loop_
 _symmetry_equiv_pos_site_id
 _symmetry_equiv_pos_as_xyz
  1  'x, y, z'
loop_
 _atom_site_type_symbol
 _atom_site_label
 _atom_site_symmetry_multiplicity
 _atom_site_fract_x
 _atom_site_fract_y
 _atom_site_fract_z
 _atom_site_occupancy
  F  F0  1  0.78491051  0.34722934  0.87318084  1
  F  F1  1  0.21508949  0.12681916  0.65277066  1
  F  F2  1  0.21508949  0.65277066  0.12681916  1
  F  F3  1  0.78491051  0.87318084  0.34722934  1
  K  K4  1  0.27752845  0.65511196  0.65511196  1
  K  K5  1  0.72247155  0.34488804  0.34488804  1
  Pd  Pd6  1  0.00000000  0.00000000  0.00000000  1
