# generated using pymatgen
data_FeGe
_symmetry_space_group_name_H-M   'P 1'
_cell_length_a   4.67061574
_cell_length_b   4.67061574
_cell_length_c   4.67061574
_cell_angle_alpha   90.00000000
_cell_angle_beta   90.00000000
_cell_angle_gamma   90.00000000
_symmetry_Int_Tables_number   1
_chemical_formula_structural   FeGe
_chemical_formula_sum   'Fe4 Ge4'
_cell_volume   101.88785415
_cell_formula_units_Z   4
loop_
 _symmetry_equiv_pos_site_id
 _symmetry_equiv_pos_as_xyz
  1  'x, y, z'
loop_
 _atom_site_type_symbol
 _atom_site_label
 _atom_site_symmetry_multiplicity
 _atom_site_fract_x
 _atom_site_fract_y
 _atom_site_fract_z
 _atom_site_occupancy
  Fe  Fe0  1  0.13571198  0.13571198  0.13571198  1
  Fe  Fe1  1  0.36428802  0.86428802  0.63571198  1
  Fe  Fe2  1  0.63571198  0.36428802  0.86428802  1
  Fe  Fe3  1  0.86428802  0.63571198  0.36428802  1
  Ge  Ge4  1  0.84208383  0.84208383  0.84208383  1
  Ge  Ge5  1  0.65791617  0.15791617  0.34208383  1
  Ge  Ge6  1  0.34208383  0.65791617  0.15791617  1
  Ge  Ge7  1  0.15791617  0.34208383  0.65791617  1
