# generated using pymatgen
data_TaFeP
_symmetry_space_group_name_H-M   'P 1'
_cell_length_a   3.59226814
_cell_length_b   6.12261431
_cell_length_c   6.94708954
_cell_angle_alpha   90.00000000
_cell_angle_beta   90.00000000
_cell_angle_gamma   90.00000000
_symmetry_Int_Tables_number   1
_chemical_formula_structural   TaFeP
_chemical_formula_sum   'Ta4 Fe4 P4'
_cell_volume   152.79478975
_cell_formula_units_Z   4
loop_
 _symmetry_equiv_pos_site_id
 _symmetry_equiv_pos_as_xyz
  1  'x, y, z'
loop_
 _atom_site_type_symbol
 _atom_site_label
 _atom_site_symmetry_multiplicity
 _atom_site_fract_x
 _atom_site_fract_y
 _atom_site_fract_z
 _atom_site_occupancy
  P  P0  1  0.25000000  0.77709537  0.61946157  1
  P  P1  1  0.25000000  0.27709537  0.88053843  1
  P  P2  1  0.75000000  0.22290463  0.38053843  1
  P  P3  1  0.75000000  0.72290463  0.11946157  1
  Fe  Fe4  1  0.75000000  0.35821077  0.06311649  1
  Fe  Fe5  1  0.25000000  0.14178923  0.56311649  1
  Fe  Fe6  1  0.75000000  0.85821077  0.43688351  1
  Fe  Fe7  1  0.25000000  0.64178923  0.93688351  1
  Ta  Ta8  1  0.25000000  0.52216246  0.32375604  1
  Ta  Ta9  1  0.25000000  0.02216246  0.17624396  1
  Ta  Ta10  1  0.75000000  0.97783754  0.82375604  1
  Ta  Ta11  1  0.75000000  0.47783754  0.67624396  1
