# generated using pymatgen
data_Y2B3C2
_symmetry_space_group_name_H-M   'P 1'
_cell_length_a   3.39597413
_cell_length_b   3.65218459
_cell_length_c   7.07624638
_cell_angle_alpha   90.00000000
_cell_angle_beta   103.88393753
_cell_angle_gamma   90.00000000
_symmetry_Int_Tables_number   1
_chemical_formula_structural   Y2B3C2
_chemical_formula_sum   'Y2 B3 C2'
_cell_volume   85.20058067
_cell_formula_units_Z   1
loop_
 _symmetry_equiv_pos_site_id
 _symmetry_equiv_pos_as_xyz
  1  'x, y, z'
loop_
 _atom_site_type_symbol
 _atom_site_label
 _atom_site_symmetry_multiplicity
 _atom_site_fract_x
 _atom_site_fract_y
 _atom_site_fract_z
 _atom_site_occupancy
  B  B0  1  0.21727493  0.00000000  0.43454985  1
  B  B1  1  0.00000000  0.00000000  0.00000000  1
  B  B2  1  0.78272507  0.00000000  0.56545015  1
  C  C3  1  0.10495570  0.00000000  0.20991141  1
  C  C4  1  0.89504430  0.00000000  0.79008859  1
  Y  Y5  1  0.36372699  0.50000000  0.72745398  1
  Y  Y6  1  0.63627301  0.50000000  0.27254602  1
