# generated using pymatgen
data_ScCuSi
_symmetry_space_group_name_H-M   'P 1'
_cell_length_a   3.97553161
_cell_length_b   6.55710171
_cell_length_c   7.23739790
_cell_angle_alpha   90.00000000
_cell_angle_beta   90.00000000
_cell_angle_gamma   90.00000000
_symmetry_Int_Tables_number   1
_chemical_formula_structural   ScCuSi
_chemical_formula_sum   'Sc4 Si4 Cu4'
_cell_volume   188.66423600
_cell_formula_units_Z   4
loop_
 _symmetry_equiv_pos_site_id
 _symmetry_equiv_pos_as_xyz
  1  'x, y, z'
loop_
 _atom_site_type_symbol
 _atom_site_label
 _atom_site_symmetry_multiplicity
 _atom_site_fract_x
 _atom_site_fract_y
 _atom_site_fract_z
 _atom_site_occupancy
  Si  Si0  1  0.25000000  0.27130415  0.89078427  1
  Si  Si1  1  0.25000000  0.77130415  0.60921573  1
  Si  Si2  1  0.75000000  0.72869585  0.10921573  1
  Si  Si3  1  0.75000000  0.22869585  0.39078427  1
  Sc  Sc4  1  0.75000000  0.99076177  0.80531999  1
  Sc  Sc5  1  0.25000000  0.50923823  0.30531999  1
  Sc  Sc6  1  0.75000000  0.49076177  0.69468001  1
  Sc  Sc7  1  0.25000000  0.00923823  0.19468001  1
  Cu  Cu8  1  0.25000000  0.65740808  0.93366898  1
  Cu  Cu9  1  0.25000000  0.15740808  0.56633102  1
  Cu  Cu10  1  0.75000000  0.84259192  0.43366898  1
  Cu  Cu11  1  0.75000000  0.34259192  0.06633102  1
