# generated using pymatgen
data_Cu2HgI4
_symmetry_space_group_name_H-M   'P 1'
_cell_length_a   6.20582977
_cell_length_b   6.20582977
_cell_length_c   7.67066135
_cell_angle_alpha   113.89090836
_cell_angle_beta   113.89090836
_cell_angle_gamma   89.82619801
_symmetry_Int_Tables_number   1
_chemical_formula_structural   Cu2HgI4
_chemical_formula_sum   'Cu2 Hg1 I4'
_cell_volume   242.33782045
_cell_formula_units_Z   1
loop_
 _symmetry_equiv_pos_site_id
 _symmetry_equiv_pos_as_xyz
  1  'x, y, z'
loop_
 _atom_site_type_symbol
 _atom_site_label
 _atom_site_symmetry_multiplicity
 _atom_site_fract_x
 _atom_site_fract_y
 _atom_site_fract_z
 _atom_site_occupancy
  Cu  Cu0  1  0.24887103  0.74951251  0.50099522  1
  Cu  Cu1  1  0.74951251  0.24887103  0.50099522  1
  Hg  Hg2  1  0.50178508  0.50178508  0.99995330  1
  I  I3  1  0.09772416  0.63232887  0.73169995  1
  I  I4  1  0.36836332  0.36836332  0.26749947  1
  I  I5  1  0.63232887  0.09772416  0.73169995  1
  I  I6  1  0.90141501  0.90141501  0.26715689  1
