# generated using pymatgen
data_NaMgF3
_symmetry_space_group_name_H-M   'P 1'
_cell_length_a   5.42465716
_cell_length_b   5.57373310
_cell_length_c   7.76809678
_cell_angle_alpha   90.00000000
_cell_angle_beta   90.00000000
_cell_angle_gamma   90.00000000
_symmetry_Int_Tables_number   1
_chemical_formula_structural   NaMgF3
_chemical_formula_sum   'Na4 Mg4 F12'
_cell_volume   234.87299840
_cell_formula_units_Z   4
loop_
 _symmetry_equiv_pos_site_id
 _symmetry_equiv_pos_as_xyz
  1  'x, y, z'
loop_
 _atom_site_type_symbol
 _atom_site_label
 _atom_site_symmetry_multiplicity
 _atom_site_fract_x
 _atom_site_fract_y
 _atom_site_fract_z
 _atom_site_occupancy
  F  F0  1  0.70240366  0.29510030  0.45174576  1
  F  F1  1  0.20240366  0.20489970  0.54825424  1
  F  F2  1  0.79759634  0.79510030  0.04825424  1
  F  F3  1  0.29759634  0.70489970  0.95174576  1
  F  F4  1  0.29759634  0.70489970  0.54825424  1
  F  F5  1  0.79759634  0.79510030  0.45174576  1
  F  F6  1  0.20240366  0.20489970  0.95174576  1
  F  F7  1  0.70240366  0.29510030  0.04825424  1
  F  F8  1  0.09223290  0.46994331  0.25000000  1
  F  F9  1  0.59223290  0.03005669  0.75000000  1
  F  F10  1  0.40776710  0.96994331  0.25000000  1
  F  F11  1  0.90776710  0.53005669  0.75000000  1
  Na  Na12  1  0.01194925  0.95225202  0.75000000  1
  Na  Na13  1  0.51194925  0.54774798  0.25000000  1
  Na  Na14  1  0.48805075  0.45225202  0.75000000  1
  Na  Na15  1  0.98805075  0.04774798  0.25000000  1
  Mg  Mg16  1  0.00000000  0.50000000  0.50000000  1
  Mg  Mg17  1  0.50000000  0.00000000  0.50000000  1
  Mg  Mg18  1  0.50000000  0.00000000  0.00000000  1
  Mg  Mg19  1  0.00000000  0.50000000  0.00000000  1
