# generated using pymatgen
data_MgSn4Ru
_symmetry_space_group_name_H-M   'P 1'
_cell_length_a   6.84334088
_cell_length_b   6.84334088
_cell_length_c   7.47260457
_cell_angle_alpha   117.25137760
_cell_angle_beta   117.25137761
_cell_angle_gamma   90.00000002
_symmetry_Int_Tables_number   1
_chemical_formula_structural   MgSn4Ru
_chemical_formula_sum   'Mg2 Sn8 Ru2'
_cell_volume   266.66789144
_cell_formula_units_Z   2
loop_
 _symmetry_equiv_pos_site_id
 _symmetry_equiv_pos_as_xyz
  1  'x, y, z'
loop_
 _atom_site_type_symbol
 _atom_site_label
 _atom_site_symmetry_multiplicity
 _atom_site_fract_x
 _atom_site_fract_y
 _atom_site_fract_z
 _atom_site_occupancy
  Mg  Mg0  1  0.50000000  0.50000000  0.00000000  1
  Mg  Mg1  1  0.00000000  0.00000000  0.00000000  1
  Ru  Ru2  1  0.75000000  0.75000000  0.50000000  1
  Ru  Ru3  1  0.25000000  0.25000000  0.50000000  1
  Sn  Sn4  1  0.51524644  0.70504100  0.72028743  1
  Sn  Sn5  1  0.01524644  0.51524644  0.72028743  1
  Sn  Sn6  1  0.70504100  0.20504100  0.72028743  1
  Sn  Sn7  1  0.29495900  0.79495900  0.27971257  1
  Sn  Sn8  1  0.98475356  0.48475356  0.27971257  1
  Sn  Sn9  1  0.48475356  0.29495900  0.27971257  1
  Sn  Sn10  1  0.79495900  0.98475356  0.27971257  1
  Sn  Sn11  1  0.20504100  0.01524644  0.72028743  1
