# generated using pymatgen
data_Li2TiO3
_symmetry_space_group_name_H-M   'P 1'
_cell_length_a   5.09996354
_cell_length_b   5.10832765
_cell_length_c   9.83459499
_cell_angle_alpha   84.92581849
_cell_angle_beta   79.79439523
_cell_angle_gamma   60.05414824
_symmetry_Int_Tables_number   1
_chemical_formula_structural   Li2TiO3
_chemical_formula_sum   'Li8 Ti4 O12'
_cell_volume   218.49596020
_cell_formula_units_Z   4
loop_
 _symmetry_equiv_pos_site_id
 _symmetry_equiv_pos_as_xyz
  1  'x, y, z'
loop_
 _atom_site_type_symbol
 _atom_site_label
 _atom_site_symmetry_multiplicity
 _atom_site_fract_x
 _atom_site_fract_y
 _atom_site_fract_z
 _atom_site_occupancy
  Li  Li0  1  0.83999096  0.84034386  0.99962296  1
  Li  Li1  1  0.31966518  0.84034386  0.50037704  1
  Li  Li2  1  0.16000904  0.15965614  0.00037704  1
  Li  Li3  1  0.68033482  0.15965614  0.49962296  1
  Li  Li4  1  0.00000000  0.50000000  0.50000000  1
  Li  Li5  1  0.50000000  0.50000000  0.00000000  1
  Li  Li6  1  0.08434165  0.83131670  0.25000000  1
  Li  Li7  1  0.91565835  0.16868330  0.75000000  1
  O  O8  1  0.95466009  0.81210709  0.63443598  1
  O  O9  1  0.12295101  0.47297174  0.13690281  1
  O  O10  1  0.23323282  0.81210709  0.86556402  1
  O  O11  1  0.04533991  0.18789291  0.36556402  1
  O  O12  1  0.47923590  0.83100611  0.13696177  1
  O  O13  1  0.40407725  0.47297174  0.36309719  1
  O  O14  1  0.87704899  0.52702826  0.86309719  1
  O  O15  1  0.59592275  0.52702826  0.63690281  1
  O  O16  1  0.31024201  0.16899389  0.63696177  1
  O  O17  1  0.68975799  0.83100611  0.36303823  1
  O  O18  1  0.52076410  0.16899389  0.86303823  1
  O  O19  1  0.76676718  0.18789291  0.13443598  1
  Ti  Ti20  1  0.41741511  0.16516978  0.25000000  1
  Ti  Ti21  1  0.25039382  0.49921237  0.75000000  1
  Ti  Ti22  1  0.74960618  0.50078763  0.25000000  1
  Ti  Ti23  1  0.58258489  0.83483022  0.75000000  1
