# generated using pymatgen
data_SrAl2
_symmetry_space_group_name_H-M   'P 1'
_cell_length_a   4.80218594
_cell_length_b   6.09253951
_cell_length_c   6.09253951
_cell_angle_alpha   81.25591087
_cell_angle_beta   66.78990796
_cell_angle_gamma   66.78990796
_symmetry_Int_Tables_number   1
_chemical_formula_structural   SrAl2
_chemical_formula_sum   'Sr2 Al4'
_cell_volume   150.56558432
_cell_formula_units_Z   2
loop_
 _symmetry_equiv_pos_site_id
 _symmetry_equiv_pos_as_xyz
  1  'x, y, z'
loop_
 _atom_site_type_symbol
 _atom_site_label
 _atom_site_symmetry_multiplicity
 _atom_site_fract_x
 _atom_site_fract_y
 _atom_site_fract_z
 _atom_site_occupancy
  Sr  Sr0  1  0.75000000  0.69992843  0.80007157  1
  Sr  Sr1  1  0.25000000  0.30007157  0.19992843  1
  Al  Al2  1  0.93168180  0.90726443  0.22937198  1
  Al  Al3  1  0.06831820  0.09273557  0.77062802  1
  Al  Al4  1  0.43168180  0.72937198  0.40726443  1
  Al  Al5  1  0.56831820  0.27062802  0.59273557  1
