# generated using pymatgen
data_Co2N
_symmetry_space_group_name_H-M   'P 1'
_cell_length_a   2.83870491
_cell_length_b   4.29200038
_cell_length_c   4.53906093
_cell_angle_alpha   90.00000000
_cell_angle_beta   90.00000000
_cell_angle_gamma   90.00000000
_symmetry_Int_Tables_number   1
_chemical_formula_structural   Co2N
_chemical_formula_sum   'Co4 N2'
_cell_volume   55.30265902
_cell_formula_units_Z   2
loop_
 _symmetry_equiv_pos_site_id
 _symmetry_equiv_pos_as_xyz
  1  'x, y, z'
loop_
 _atom_site_type_symbol
 _atom_site_label
 _atom_site_symmetry_multiplicity
 _atom_site_fract_x
 _atom_site_fract_y
 _atom_site_fract_z
 _atom_site_occupancy
  N  N0  1  0.50000000  0.50000000  0.50000000  1
  N  N1  1  0.00000000  0.00000000  0.00000000  1
  Co  Co2  1  0.50000000  0.22936235  0.82465378  1
  Co  Co3  1  0.50000000  0.77063765  0.17534622  1
  Co  Co4  1  0.00000000  0.27063765  0.32465378  1
  Co  Co5  1  0.00000000  0.72936235  0.67534622  1
