# generated using pymatgen
data_Au2O3
_symmetry_space_group_name_H-M   'P 1'
_cell_length_a   4.05580926
_cell_length_b   5.70378860
_cell_length_c   6.83063593
_cell_angle_alpha   83.94097305
_cell_angle_beta   72.72947193
_cell_angle_gamma   69.17367553
_symmetry_Int_Tables_number   1
_chemical_formula_structural   Au2O3
_chemical_formula_sum   'Au4 O6'
_cell_volume   141.03307037
_cell_formula_units_Z   2
loop_
 _symmetry_equiv_pos_site_id
 _symmetry_equiv_pos_as_xyz
  1  'x, y, z'
loop_
 _atom_site_type_symbol
 _atom_site_label
 _atom_site_symmetry_multiplicity
 _atom_site_fract_x
 _atom_site_fract_y
 _atom_site_fract_z
 _atom_site_occupancy
  O  O0  1  0.44544582  0.50000000  0.50000000  1
  O  O1  1  0.19544582  0.00000000  1.00000000  1
  O  O2  1  0.77021255  0.03466565  0.66428604  1
  O  O3  1  0.46916425  0.96533435  0.33571396  1
  O  O4  1  0.68449859  0.53466565  0.83571396  1
  O  O5  1  0.05487820  0.46533435  0.16428604  1
  Au  Au6  1  0.93376726  0.23211399  0.40842886  1
  Au  Au7  1  0.57431012  0.76788601  0.59157114  1
  Au  Au8  1  0.41588126  0.26788601  0.90842886  1
  Au  Au9  1  0.59219613  0.73211399  0.09157114  1
