# generated using pymatgen
data_CoAs2
_symmetry_space_group_name_H-M   'P 1'
_cell_length_a   5.89121276
_cell_length_b   5.93826464
_cell_length_c   5.99373607
_cell_angle_alpha   116.00270481
_cell_angle_beta   90.00000000
_cell_angle_gamma   90.00000000
_symmetry_Int_Tables_number   1
_chemical_formula_structural   CoAs2
_chemical_formula_sum   'Co4 As8'
_cell_volume   188.45690644
_cell_formula_units_Z   4
loop_
 _symmetry_equiv_pos_site_id
 _symmetry_equiv_pos_as_xyz
  1  'x, y, z'
loop_
 _atom_site_type_symbol
 _atom_site_label
 _atom_site_symmetry_multiplicity
 _atom_site_fract_x
 _atom_site_fract_y
 _atom_site_fract_z
 _atom_site_occupancy
  Co  Co0  1  0.99950484  0.72817577  0.71443692  1
  Co  Co1  1  0.49950484  0.27182423  0.78556308  1
  Co  Co2  1  0.00049516  0.27182423  0.28556308  1
  Co  Co3  1  0.50049516  0.72817577  0.21443692  1
  As  As4  1  0.63609524  0.65692842  0.82542966  1
  As  As5  1  0.13609524  0.34307158  0.67457034  1
  As  As6  1  0.36390476  0.34307158  0.17457034  1
  As  As7  1  0.86390476  0.65692842  0.32542966  1
  As  As8  1  0.36602682  0.84660137  0.63210825  1
  As  As9  1  0.86602682  0.15339863  0.86789175  1
  As  As10  1  0.63397318  0.15339863  0.36789175  1
  As  As11  1  0.13397318  0.84660137  0.13210825  1
