# generated using pymatgen
data_Y2O3
_symmetry_space_group_name_H-M   'P 1'
_cell_length_a   9.26984146
_cell_length_b   9.26984146
_cell_length_c   9.26984146
_cell_angle_alpha   109.47122061
_cell_angle_beta   109.47122062
_cell_angle_gamma   109.47122064
_symmetry_Int_Tables_number   1
_chemical_formula_structural   Y2O3
_chemical_formula_sum   'Y16 O24'
_cell_volume   613.18995094
_cell_formula_units_Z   8
loop_
 _symmetry_equiv_pos_site_id
 _symmetry_equiv_pos_as_xyz
  1  'x, y, z'
loop_
 _atom_site_type_symbol
 _atom_site_label
 _atom_site_symmetry_multiplicity
 _atom_site_fract_x
 _atom_site_fract_y
 _atom_site_fract_z
 _atom_site_occupancy
  O  O0  1  0.03146527  0.48884232  0.76071929  1
  O  O1  1  0.22812303  0.27074598  0.73928071  1
  O  O2  1  0.27187697  0.01115768  0.04262295  1
  O  O3  1  0.22925402  0.45737705  0.46853473  1
  O  O4  1  0.45737705  0.46853473  0.22925402  1
  O  O5  1  0.76071929  0.03146527  0.48884232  1
  O  O6  1  0.27074598  0.73928071  0.22812303  1
  O  O7  1  0.04262295  0.27187697  0.01115768  1
  O  O8  1  0.48884232  0.76071929  0.03146527  1
  O  O9  1  0.73928071  0.22812303  0.27074598  1
  O  O10  1  0.01115768  0.04262295  0.27187697  1
  O  O11  1  0.46853473  0.22925402  0.45737705  1
  O  O12  1  0.96853473  0.51115768  0.23928071  1
  O  O13  1  0.77187697  0.72925402  0.26071929  1
  O  O14  1  0.72812303  0.98884232  0.95737705  1
  O  O15  1  0.77074598  0.54262295  0.53146527  1
  O  O16  1  0.53146527  0.77074598  0.54262295  1
  O  O17  1  0.98884232  0.95737705  0.72812303  1
  O  O18  1  0.26071929  0.77187697  0.72925402  1
  O  O19  1  0.51115768  0.23928071  0.96853473  1
  O  O20  1  0.95737705  0.72812303  0.98884232  1
  O  O21  1  0.72925402  0.26071929  0.77187697  1
  O  O22  1  0.23928071  0.96853473  0.51115768  1
  O  O23  1  0.54262295  0.53146527  0.77074598  1
  Y  Y24  1  0.25000000  0.71731763  0.46731763  1
  Y  Y25  1  0.03268237  0.75000000  0.78268237  1
  Y  Y26  1  0.78268237  0.03268237  0.75000000  1
  Y  Y27  1  0.46731763  0.25000000  0.71731763  1
  Y  Y28  1  0.71731763  0.46731763  0.25000000  1
  Y  Y29  1  0.75000000  0.78268237  0.03268237  1
  Y  Y30  1  0.75000000  0.28268237  0.53268237  1
  Y  Y31  1  0.96731763  0.25000000  0.21731763  1
  Y  Y32  1  0.21731763  0.96731763  0.25000000  1
  Y  Y33  1  0.53268237  0.75000000  0.28268237  1
  Y  Y34  1  0.28268237  0.53268237  0.75000000  1
  Y  Y35  1  0.25000000  0.21731763  0.96731763  1
  Y  Y36  1  0.00000000  0.50000000  0.00000000  1
  Y  Y37  1  0.50000000  0.00000000  0.00000000  1
  Y  Y38  1  0.00000000  0.00000000  0.50000000  1
  Y  Y39  1  0.50000000  0.50000000  0.50000000  1
