# generated using pymatgen
data_SbO2
_symmetry_space_group_name_H-M   'P 1'
_cell_length_a   4.90657757
_cell_length_b   5.55192937
_cell_length_c   11.93748402
_cell_angle_alpha   90.00000000
_cell_angle_beta   90.00000000
_cell_angle_gamma   90.00000000
_symmetry_Int_Tables_number   1
_chemical_formula_structural   SbO2
_chemical_formula_sum   'Sb8 O16'
_cell_volume   325.18866934
_cell_formula_units_Z   8
loop_
 _symmetry_equiv_pos_site_id
 _symmetry_equiv_pos_as_xyz
  1  'x, y, z'
loop_
 _atom_site_type_symbol
 _atom_site_label
 _atom_site_symmetry_multiplicity
 _atom_site_fract_x
 _atom_site_fract_y
 _atom_site_fract_z
 _atom_site_occupancy
  O  O0  1  0.66625325  0.84430588  0.09539834  1
  O  O1  1  0.33374675  0.15569412  0.59539834  1
  O  O2  1  0.83374675  0.34430588  0.09539834  1
  O  O3  1  0.16625325  0.65569412  0.59539834  1
  O  O4  1  0.29475630  0.57961531  0.19335284  1
  O  O5  1  0.70524370  0.42038469  0.69335284  1
  O  O6  1  0.20524370  0.07961531  0.19335284  1
  O  O7  1  0.79475630  0.92038469  0.69335284  1
  O  O8  1  0.83926927  0.68180077  0.90750756  1
  O  O9  1  0.16073073  0.31819923  0.40750756  1
  O  O10  1  0.66073073  0.18180077  0.90750756  1
  O  O11  1  0.33926927  0.81819923  0.40750756  1
  O  O12  1  0.28876859  0.85630210  0.81264921  1
  O  O13  1  0.71123141  0.14369790  0.31264921  1
  O  O14  1  0.21123141  0.35630210  0.81264921  1
  O  O15  1  0.78876859  0.64369790  0.31264921  1
  Sb  Sb16  1  0.46249099  0.48081187  0.50157553  1
  Sb  Sb17  1  0.53750901  0.51918813  0.00157553  1
  Sb  Sb18  1  0.03750901  0.98081187  0.50157553  1
  Sb  Sb19  1  0.96249099  0.01918813  0.00157553  1
  Sb  Sb20  1  0.50111737  0.86701213  0.25291651  1
  Sb  Sb21  1  0.49888263  0.13298787  0.75291651  1
  Sb  Sb22  1  0.99888263  0.36701213  0.25291651  1
  Sb  Sb23  1  0.00111737  0.63298787  0.75291651  1
