# generated using pymatgen
data_TiGePd
_symmetry_space_group_name_H-M   'P 1'
_cell_length_a   3.88011565
_cell_length_b   6.41143651
_cell_length_c   7.60929665
_cell_angle_alpha   90.00000000
_cell_angle_beta   90.00000000
_cell_angle_gamma   90.00000000
_symmetry_Int_Tables_number   1
_chemical_formula_structural   TiGePd
_chemical_formula_sum   'Ti4 Ge4 Pd4'
_cell_volume   189.29734891
_cell_formula_units_Z   4
loop_
 _symmetry_equiv_pos_site_id
 _symmetry_equiv_pos_as_xyz
  1  'x, y, z'
loop_
 _atom_site_type_symbol
 _atom_site_label
 _atom_site_symmetry_multiplicity
 _atom_site_fract_x
 _atom_site_fract_y
 _atom_site_fract_z
 _atom_site_occupancy
  Ti  Ti0  1  0.75000000  0.46520656  0.31677809  1
  Ti  Ti1  1  0.25000000  0.53479344  0.68322191  1
  Ti  Ti2  1  0.75000000  0.96520656  0.18322191  1
  Ti  Ti3  1  0.25000000  0.03479344  0.81677809  1
  Ge  Ge4  1  0.75000000  0.75719336  0.87595541  1
  Ge  Ge5  1  0.25000000  0.74280664  0.37595541  1
  Ge  Ge6  1  0.25000000  0.24280664  0.12404459  1
  Ge  Ge7  1  0.75000000  0.25719336  0.62404459  1
  Pd  Pd8  1  0.25000000  0.14448121  0.43867571  1
  Pd  Pd9  1  0.25000000  0.64448121  0.06132429  1
  Pd  Pd10  1  0.75000000  0.35551879  0.93867571  1
  Pd  Pd11  1  0.75000000  0.85551879  0.56132429  1
