# generated using pymatgen
data_Fe2N
_symmetry_space_group_name_H-M   'P 1'
_cell_length_a   4.34744502
_cell_length_b   4.74632452
_cell_length_c   5.46839952
_cell_angle_alpha   90.00000000
_cell_angle_beta   90.00000000
_cell_angle_gamma   90.00000000
_symmetry_Int_Tables_number   1
_chemical_formula_structural   Fe2N
_chemical_formula_sum   'Fe8 N4'
_cell_volume   112.83706047
_cell_formula_units_Z   4
loop_
 _symmetry_equiv_pos_site_id
 _symmetry_equiv_pos_as_xyz
  1  'x, y, z'
loop_
 _atom_site_type_symbol
 _atom_site_label
 _atom_site_symmetry_multiplicity
 _atom_site_fract_x
 _atom_site_fract_y
 _atom_site_fract_z
 _atom_site_occupancy
  N  N0  1  0.50000000  0.75000000  0.13493351  1
  N  N1  1  0.00000000  0.25000000  0.36506649  1
  N  N2  1  0.50000000  0.25000000  0.86506649  1
  N  N3  1  0.00000000  0.75000000  0.63493351  1
  Fe  Fe4  1  0.25081834  0.08465658  0.12656622  1
  Fe  Fe5  1  0.75081834  0.91534342  0.37343378  1
  Fe  Fe6  1  0.24918166  0.58465658  0.37343378  1
  Fe  Fe7  1  0.74918166  0.41534342  0.12656622  1
  Fe  Fe8  1  0.25081834  0.58465658  0.87343378  1
  Fe  Fe9  1  0.75081834  0.41534342  0.62656622  1
  Fe  Fe10  1  0.24918166  0.08465658  0.62656622  1
  Fe  Fe11  1  0.74918166  0.91534342  0.87343378  1
