# generated using pymatgen
data_YZnSn
_symmetry_space_group_name_H-M   'P 1'
_cell_length_a   4.51117883
_cell_length_b   4.51117883
_cell_length_c   16.11918899
_cell_angle_alpha   90.00000000
_cell_angle_beta   90.00000000
_cell_angle_gamma   120.00000004
_symmetry_Int_Tables_number   1
_chemical_formula_structural   YZnSn
_chemical_formula_sum   'Y4 Zn4 Sn4'
_cell_volume   284.08866520
_cell_formula_units_Z   4
loop_
 _symmetry_equiv_pos_site_id
 _symmetry_equiv_pos_as_xyz
  1  'x, y, z'
loop_
 _atom_site_type_symbol
 _atom_site_label
 _atom_site_symmetry_multiplicity
 _atom_site_fract_x
 _atom_site_fract_y
 _atom_site_fract_z
 _atom_site_occupancy
  Zn  Zn0  1  0.66666667  0.33333333  0.83877057  1
  Zn  Zn1  1  0.33333333  0.66666667  0.33877057  1
  Zn  Zn2  1  0.66666667  0.33333333  0.66122943  1
  Zn  Zn3  1  0.33333333  0.66666667  0.16122943  1
  Y  Y4  1  0.00000000  0.00000000  0.00000000  1
  Y  Y5  1  0.00000000  0.00000000  0.25000000  1
  Y  Y6  1  0.00000000  0.00000000  0.50000000  1
  Y  Y7  1  0.00000000  0.00000000  0.75000000  1
  Sn  Sn8  1  0.33333333  0.66666667  0.61379013  1
  Sn  Sn9  1  0.66666667  0.33333333  0.11379013  1
  Sn  Sn10  1  0.66666667  0.33333333  0.38620987  1
  Sn  Sn11  1  0.33333333  0.66666667  0.88620987  1
