# generated using pymatgen
data_Fe2N
_symmetry_space_group_name_H-M   'P 1'
_cell_length_a   4.75226025
_cell_length_b   4.75226025
_cell_length_c   4.32056687
_cell_angle_alpha   90.00000000
_cell_angle_beta   90.00000000
_cell_angle_gamma   120.00000006
_symmetry_Int_Tables_number   1
_chemical_formula_structural   Fe2N
_chemical_formula_sum   'Fe6 N3'
_cell_volume   84.50293528
_cell_formula_units_Z   3
loop_
 _symmetry_equiv_pos_site_id
 _symmetry_equiv_pos_as_xyz
  1  'x, y, z'
loop_
 _atom_site_type_symbol
 _atom_site_label
 _atom_site_symmetry_multiplicity
 _atom_site_fract_x
 _atom_site_fract_y
 _atom_site_fract_z
 _atom_site_occupancy
  N  N0  1  0.66666667  0.33333333  0.50000000  1
  N  N1  1  0.33333333  0.66666667  0.50000000  1
  N  N2  1  0.00000000  0.00000000  0.00000000  1
  Fe  Fe3  1  0.00000000  0.66974381  0.74799745  1
  Fe  Fe4  1  0.66974381  0.00000000  0.74799745  1
  Fe  Fe5  1  0.33025619  0.33025619  0.74799745  1
  Fe  Fe6  1  0.66974381  0.66974381  0.25200255  1
  Fe  Fe7  1  0.00000000  0.33025619  0.25200255  1
  Fe  Fe8  1  0.33025619  0.00000000  0.25200255  1
