# generated using pymatgen
data_CuAuF5
_symmetry_space_group_name_H-M   'P 1'
_cell_length_a   3.78883932
_cell_length_b   5.14379782
_cell_length_c   5.54537341
_cell_angle_alpha   90.59332707
_cell_angle_beta   81.49594137
_cell_angle_gamma   72.57368025
_symmetry_Int_Tables_number   1
_chemical_formula_structural   CuAuF5
_chemical_formula_sum   'Cu1 Au1 F5'
_cell_volume   101.80880829
_cell_formula_units_Z   1
loop_
 _symmetry_equiv_pos_site_id
 _symmetry_equiv_pos_as_xyz
  1  'x, y, z'
loop_
 _atom_site_type_symbol
 _atom_site_label
 _atom_site_symmetry_multiplicity
 _atom_site_fract_x
 _atom_site_fract_y
 _atom_site_fract_z
 _atom_site_occupancy
  F  F0  1  0.50000000  0.50000000  0.50000000  1
  F  F1  1  0.88303696  0.84708804  0.31939011  1
  F  F2  1  0.18102799  0.27099632  0.16471314  1
  F  F3  1  0.81897201  0.72900368  0.83528686  1
  F  F4  1  0.11696304  0.15291196  0.68060989  1
  Cu  Cu5  1  0.00000000  0.50000000  0.50000000  1
  Au  Au6  1  0.00000000  0.00000000  0.00000000  1
