# generated using pymatgen
data_V2P
_symmetry_space_group_name_H-M   'P 1'
_cell_length_a   3.26299330
_cell_length_b   6.19397244
_cell_length_c   7.54513146
_cell_angle_alpha   90.00000000
_cell_angle_beta   90.00000000
_cell_angle_gamma   90.00000000
_symmetry_Int_Tables_number   1
_chemical_formula_structural   V2P
_chemical_formula_sum   'V8 P4'
_cell_volume   152.49382629
_cell_formula_units_Z   4
loop_
 _symmetry_equiv_pos_site_id
 _symmetry_equiv_pos_as_xyz
  1  'x, y, z'
loop_
 _atom_site_type_symbol
 _atom_site_label
 _atom_site_symmetry_multiplicity
 _atom_site_fract_x
 _atom_site_fract_y
 _atom_site_fract_z
 _atom_site_occupancy
  V  V0  1  0.75000000  0.63828700  0.55921346  1
  V  V1  1  0.75000000  0.13828700  0.94078654  1
  V  V2  1  0.25000000  0.36171300  0.44078654  1
  V  V3  1  0.25000000  0.86171300  0.05921346  1
  V  V4  1  0.75000000  0.53985830  0.16572487  1
  V  V5  1  0.75000000  0.03985830  0.33427513  1
  V  V6  1  0.25000000  0.46014170  0.83427513  1
  V  V7  1  0.25000000  0.96014170  0.66572487  1
  P  P8  1  0.75000000  0.25257198  0.64232615  1
  P  P9  1  0.75000000  0.75257198  0.85767385  1
  P  P10  1  0.25000000  0.74742802  0.35767385  1
  P  P11  1  0.25000000  0.24742802  0.14232615  1
