# generated using pymatgen
data_W2C
_symmetry_space_group_name_H-M   'P 1'
_cell_length_a   4.75632168
_cell_length_b   5.23726546
_cell_length_c   6.11103445
_cell_angle_alpha   90.00000000
_cell_angle_beta   90.00000000
_cell_angle_gamma   90.00000000
_symmetry_Int_Tables_number   1
_chemical_formula_structural   W2C
_chemical_formula_sum   'W8 C4'
_cell_volume   152.22659690
_cell_formula_units_Z   4
loop_
 _symmetry_equiv_pos_site_id
 _symmetry_equiv_pos_as_xyz
  1  'x, y, z'
loop_
 _atom_site_type_symbol
 _atom_site_label
 _atom_site_symmetry_multiplicity
 _atom_site_fract_x
 _atom_site_fract_y
 _atom_site_fract_z
 _atom_site_occupancy
  C  C0  1  0.50000000  0.75000000  0.12174996  1
  C  C1  1  0.00000000  0.25000000  0.37825004  1
  C  C2  1  0.50000000  0.25000000  0.87825004  1
  C  C3  1  0.00000000  0.75000000  0.62174996  1
  W  W4  1  0.24480457  0.08118748  0.12358018  1
  W  W5  1  0.74480457  0.91881252  0.37641982  1
  W  W6  1  0.25519543  0.58118748  0.37641982  1
  W  W7  1  0.75519543  0.41881252  0.12358018  1
  W  W8  1  0.24480457  0.58118748  0.87641982  1
  W  W9  1  0.74480457  0.41881252  0.62358018  1
  W  W10  1  0.25519543  0.08118748  0.62358018  1
  W  W11  1  0.75519543  0.91881252  0.87641982  1
