# generated using pymatgen
data_Nb6C5
_symmetry_space_group_name_H-M   'P 1'
_cell_length_a   5.52107912
_cell_length_b   5.51006158
_cell_length_c   5.51213780
_cell_angle_alpha   80.28765820
_cell_angle_beta   70.32222119
_cell_angle_gamma   59.93383395
_symmetry_Int_Tables_number   1
_chemical_formula_structural   Nb6C5
_chemical_formula_sum   'Nb6 C5'
_cell_volume   136.64954329
_cell_formula_units_Z   1
loop_
 _symmetry_equiv_pos_site_id
 _symmetry_equiv_pos_as_xyz
  1  'x, y, z'
loop_
 _atom_site_type_symbol
 _atom_site_label
 _atom_site_symmetry_multiplicity
 _atom_site_fract_x
 _atom_site_fract_y
 _atom_site_fract_z
 _atom_site_occupancy
  C  C0  1  0.50000000  0.00000000  0.50000000  1
  C  C1  1  0.33518930  0.32962139  0.00000000  1
  C  C2  1  0.66481070  0.67037861  0.00000000  1
  C  C3  1  0.16675794  0.66648413  0.50000000  1
  C  C4  1  0.83324206  0.33351587  0.50000000  1
  Nb  Nb5  1  0.73556489  0.00000000  0.73558125  1
  Nb  Nb6  1  0.26443511  0.00000000  0.26441875  1
  Nb  Nb7  1  0.43627965  0.64681141  0.74632830  1
  Nb  Nb8  1  0.91690894  0.64681141  0.25367170  1
  Nb  Nb9  1  0.56372035  0.35318859  0.25367170  1
  Nb  Nb10  1  0.08309106  0.35318859  0.74632830  1
