# generated using pymatgen
data_NbPS
_symmetry_space_group_name_H-M   'P 1'
_cell_length_a   3.45295712
_cell_length_b   4.73253493
_cell_length_c   6.70970844
_cell_angle_alpha   110.65029706
_cell_angle_beta   104.91053751
_cell_angle_gamma   89.99999995
_symmetry_Int_Tables_number   1
_chemical_formula_structural   NbPS
_chemical_formula_sum   'Nb2 P2 S2'
_cell_volume   98.64512148
_cell_formula_units_Z   2
loop_
 _symmetry_equiv_pos_site_id
 _symmetry_equiv_pos_as_xyz
  1  'x, y, z'
loop_
 _atom_site_type_symbol
 _atom_site_label
 _atom_site_symmetry_multiplicity
 _atom_site_fract_x
 _atom_site_fract_y
 _atom_site_fract_z
 _atom_site_occupancy
  P  P0  1  0.50000000  0.76367968  0.00000000  1
  P  P1  1  0.50000000  0.23632032  0.00000000  1
  S  S2  1  0.21268058  0.21268058  0.42536117  1
  S  S3  1  0.78731942  0.78731942  0.57463883  1
  Nb  Nb4  1  0.87577643  0.37577643  0.75155286  1
  Nb  Nb5  1  0.12422357  0.62422357  0.24844714  1
