# generated using pymatgen
data_CrFeP
_symmetry_space_group_name_H-M   'P 1'
_cell_length_a   3.53399457
_cell_length_b   5.75351008
_cell_length_c   6.55566491
_cell_angle_alpha   90.00000000
_cell_angle_beta   90.00000000
_cell_angle_gamma   90.00000000
_symmetry_Int_Tables_number   1
_chemical_formula_structural   CrFeP
_chemical_formula_sum   'Cr4 Fe4 P4'
_cell_volume   133.29550454
_cell_formula_units_Z   4
loop_
 _symmetry_equiv_pos_site_id
 _symmetry_equiv_pos_as_xyz
  1  'x, y, z'
loop_
 _atom_site_type_symbol
 _atom_site_label
 _atom_site_symmetry_multiplicity
 _atom_site_fract_x
 _atom_site_fract_y
 _atom_site_fract_z
 _atom_site_occupancy
  P  P0  1  0.25000000  0.26531666  0.87677439  1
  P  P1  1  0.75000000  0.73468334  0.12322561  1
  P  P2  1  0.25000000  0.76531666  0.62322561  1
  P  P3  1  0.75000000  0.23468334  0.37677439  1
  Cr  Cr4  1  0.75000000  0.97627902  0.82988566  1
  Cr  Cr5  1  0.25000000  0.02372098  0.17011434  1
  Cr  Cr6  1  0.75000000  0.47627902  0.67011434  1
  Cr  Cr7  1  0.25000000  0.52372098  0.32988566  1
  Fe  Fe8  1  0.25000000  0.64419267  0.93812997  1
  Fe  Fe9  1  0.75000000  0.35580733  0.06187003  1
  Fe  Fe10  1  0.25000000  0.14419267  0.56187003  1
  Fe  Fe11  1  0.75000000  0.85580733  0.43812997  1
