# generated using pymatgen
data_Tl2PtCl6
_symmetry_space_group_name_H-M   'P 1'
_cell_length_a   7.14782028
_cell_length_b   7.14782049
_cell_length_c   7.14782096
_cell_angle_alpha   60.00000295
_cell_angle_beta   60.00000201
_cell_angle_gamma   60.00000236
_symmetry_Int_Tables_number   1
_chemical_formula_structural   Tl2PtCl6
_chemical_formula_sum   'Tl2 Pt1 Cl6'
_cell_volume   258.22955893
_cell_formula_units_Z   1
loop_
 _symmetry_equiv_pos_site_id
 _symmetry_equiv_pos_as_xyz
  1  'x, y, z'
loop_
 _atom_site_type_symbol
 _atom_site_label
 _atom_site_symmetry_multiplicity
 _atom_site_fract_x
 _atom_site_fract_y
 _atom_site_fract_z
 _atom_site_occupancy
  Pt  Pt0  1  0.00000000  0.00000000  0.00000000  1
  Tl  Tl1  1  0.25000000  0.25000000  0.25000000  1
  Tl  Tl2  1  0.75000000  0.75000000  0.75000000  1
  Cl  Cl3  1  0.76798921  0.23201079  0.23201079  1
  Cl  Cl4  1  0.76798921  0.76798921  0.23201079  1
  Cl  Cl5  1  0.23201079  0.23201079  0.76798921  1
  Cl  Cl6  1  0.76798921  0.23201079  0.76798921  1
  Cl  Cl7  1  0.23201079  0.76798921  0.23201079  1
  Cl  Cl8  1  0.23201079  0.76798921  0.76798921  1
