# generated using pymatgen
data_VAsRh
_symmetry_space_group_name_H-M   'P 1'
_cell_length_a   3.90790255
_cell_length_b   6.15626875
_cell_length_c   7.30143466
_cell_angle_alpha   90.00000000
_cell_angle_beta   90.00000000
_cell_angle_gamma   90.00000000
_symmetry_Int_Tables_number   1
_chemical_formula_structural   VAsRh
_chemical_formula_sum   'V4 As4 Rh4'
_cell_volume   175.65863312
_cell_formula_units_Z   4
loop_
 _symmetry_equiv_pos_site_id
 _symmetry_equiv_pos_as_xyz
  1  'x, y, z'
loop_
 _atom_site_type_symbol
 _atom_site_label
 _atom_site_symmetry_multiplicity
 _atom_site_fract_x
 _atom_site_fract_y
 _atom_site_fract_z
 _atom_site_occupancy
  V  V0  1  0.75000000  0.96949885  0.17840639  1
  V  V1  1  0.75000000  0.46949885  0.32159361  1
  V  V2  1  0.25000000  0.03050115  0.82159361  1
  V  V3  1  0.25000000  0.53050115  0.67840639  1
  As  As4  1  0.75000000  0.25776866  0.61859689  1
  As  As5  1  0.75000000  0.75776866  0.88140311  1
  As  As6  1  0.25000000  0.74223134  0.38140311  1
  As  As7  1  0.25000000  0.24223134  0.11859689  1
  Rh  Rh8  1  0.75000000  0.85448765  0.56331387  1
  Rh  Rh9  1  0.75000000  0.35448765  0.93668613  1
  Rh  Rh10  1  0.25000000  0.14551235  0.43668613  1
  Rh  Rh11  1  0.25000000  0.64551235  0.06331387  1
