# generated using pymatgen
data_VCoSi
_symmetry_space_group_name_H-M   'P 1'
_cell_length_a   3.55257657
_cell_length_b   5.96384374
_cell_length_c   6.83429564
_cell_angle_alpha   90.00000000
_cell_angle_beta   90.00000000
_cell_angle_gamma   90.00000000
_symmetry_Int_Tables_number   1
_chemical_formula_structural   VCoSi
_chemical_formula_sum   'V4 Co4 Si4'
_cell_volume   144.79830058
_cell_formula_units_Z   4
loop_
 _symmetry_equiv_pos_site_id
 _symmetry_equiv_pos_as_xyz
  1  'x, y, z'
loop_
 _atom_site_type_symbol
 _atom_site_label
 _atom_site_symmetry_multiplicity
 _atom_site_fract_x
 _atom_site_fract_y
 _atom_site_fract_z
 _atom_site_occupancy
  Si  Si0  1  0.25000000  0.76696303  0.37621498  1
  Si  Si1  1  0.25000000  0.26696303  0.12378502  1
  Si  Si2  1  0.75000000  0.23303697  0.62378502  1
  Si  Si3  1  0.75000000  0.73303697  0.87621498  1
  V  V4  1  0.75000000  0.47499499  0.32197281  1
  V  V5  1  0.25000000  0.02500501  0.82197281  1
  V  V6  1  0.75000000  0.97499499  0.17802719  1
  V  V7  1  0.25000000  0.52500501  0.67802719  1
  Co  Co8  1  0.25000000  0.64281949  0.06093348  1
  Co  Co9  1  0.25000000  0.14281949  0.43906652  1
  Co  Co10  1  0.75000000  0.85718051  0.56093348  1
  Co  Co11  1  0.75000000  0.35718051  0.93906652  1
