# generated using pymatgen
data_CoGe
_symmetry_space_group_name_H-M   'P 1'
_cell_length_a   3.75757822
_cell_length_b   4.92774346
_cell_length_c   6.15633073
_cell_angle_alpha   99.17635954
_cell_angle_beta   107.76899442
_cell_angle_gamma   89.99999998
_symmetry_Int_Tables_number   1
_chemical_formula_structural   CoGe
_chemical_formula_sum   'Co4 Ge4'
_cell_volume   107.02192921
_cell_formula_units_Z   4
loop_
 _symmetry_equiv_pos_site_id
 _symmetry_equiv_pos_as_xyz
  1  'x, y, z'
loop_
 _atom_site_type_symbol
 _atom_site_label
 _atom_site_symmetry_multiplicity
 _atom_site_fract_x
 _atom_site_fract_y
 _atom_site_fract_z
 _atom_site_occupancy
  Co  Co0  1  0.00000000  0.00000000  0.00000000  1
  Co  Co1  1  0.00000000  0.50000000  0.00000000  1
  Co  Co2  1  0.80303715  0.67395089  0.60607429  1
  Co  Co3  1  0.19696285  0.32604911  0.39392571  1
  Ge  Ge4  1  0.81683897  0.18104816  0.63367794  1
  Ge  Ge5  1  0.18316103  0.81895184  0.36632206  1
  Ge  Ge6  1  0.57005098  0.28226226  0.14010197  1
  Ge  Ge7  1  0.42994902  0.71773774  0.85989803  1
