# generated using pymatgen
data_Bi2O3
_symmetry_space_group_name_H-M   'P 1'
_cell_length_a   5.93334870
_cell_length_b   7.59784434
_cell_length_c   8.27644683
_cell_angle_alpha   90.00000000
_cell_angle_beta   90.00000000
_cell_angle_gamma   113.71714088
_symmetry_Int_Tables_number   1
_chemical_formula_structural   Bi2O3
_chemical_formula_sum   'Bi8 O12'
_cell_volume   341.59586862
_cell_formula_units_Z   4
loop_
 _symmetry_equiv_pos_site_id
 _symmetry_equiv_pos_as_xyz
  1  'x, y, z'
loop_
 _atom_site_type_symbol
 _atom_site_label
 _atom_site_symmetry_multiplicity
 _atom_site_fract_x
 _atom_site_fract_y
 _atom_site_fract_z
 _atom_site_occupancy
  O  O0  1  0.74265607  0.01189095  0.46689519  1
  O  O1  1  0.75734393  0.48810905  0.96689519  1
  O  O2  1  0.25734393  0.98810905  0.53310481  1
  O  O3  1  0.24265607  0.51189095  0.03310481  1
  O  O4  1  0.38671992  0.62328267  0.45013796  1
  O  O5  1  0.11328008  0.87671733  0.95013796  1
  O  O6  1  0.61328008  0.37671733  0.54986204  1
  O  O7  1  0.88671992  0.12328267  0.04986204  1
  O  O8  1  0.92800057  0.70567824  0.29820308  1
  O  O9  1  0.57199943  0.79432176  0.79820308  1
  O  O10  1  0.07199943  0.29432176  0.70179692  1
  O  O11  1  0.42800057  0.20567824  0.20179692  1
  Bi  Bi12  1  0.23730038  0.27697633  0.45869896  1
  Bi  Bi13  1  0.26269962  0.22302367  0.95869896  1
  Bi  Bi14  1  0.76269962  0.72302367  0.54130104  1
  Bi  Bi15  1  0.73730038  0.77697633  0.04130104  1
  Bi  Bi16  1  0.34162976  0.86572618  0.31675912  1
  Bi  Bi17  1  0.15837024  0.63427382  0.81675912  1
  Bi  Bi18  1  0.65837024  0.13427382  0.68324088  1
  Bi  Bi19  1  0.84162976  0.36572618  0.18324088  1
