# generated using pymatgen
data_BeP2
_symmetry_space_group_name_H-M   'P 1'
_cell_length_a   7.11107518
_cell_length_b   7.11101681
_cell_length_c   7.93789537
_cell_angle_alpha   102.91245496
_cell_angle_beta   102.91187846
_cell_angle_gamma   89.99884737
_symmetry_Int_Tables_number   1
_chemical_formula_structural   BeP2
_chemical_formula_sum   'Be8 P16'
_cell_volume   380.82581189
_cell_formula_units_Z   8
loop_
 _symmetry_equiv_pos_site_id
 _symmetry_equiv_pos_as_xyz
  1  'x, y, z'
loop_
 _atom_site_type_symbol
 _atom_site_label
 _atom_site_symmetry_multiplicity
 _atom_site_fract_x
 _atom_site_fract_y
 _atom_site_fract_z
 _atom_site_occupancy
  Be  Be0  1  0.29342478  0.04723654  0.17679891  1
  Be  Be1  1  0.29269592  0.54053438  0.17351910  1
  Be  Be2  1  0.83236993  0.33441856  0.32648244  1
  Be  Be3  1  0.83154210  0.82778969  0.32323774  1
  Be  Be4  1  0.66558027  0.16762619  0.67352086  1
  Be  Be5  1  0.17221158  0.16845347  0.67678525  1
  Be  Be6  1  0.45946233  0.70729687  0.82649888  1
  Be  Be7  1  0.95275769  0.70657242  0.82320604  1
  P  P8  1  0.11965183  0.88034935  0.50000780  1
  P  P9  1  0.62933181  0.87968131  0.49719535  1
  P  P10  1  0.12031214  0.37066918  0.50281855  1
  P  P11  1  0.63021402  0.36978538  0.50000426  1
  P  P12  1  0.33128500  0.83024415  0.32898680  1
  P  P13  1  0.33253977  0.33528845  0.33337233  1
  P  P14  1  0.79248256  0.53968257  0.16668348  1
  P  P15  1  0.79365011  0.04476879  0.17100050  1
  P  P16  1  0.66470171  0.66744944  0.66663793  1
  P  P17  1  0.16975002  0.66870980  0.67101648  1
  P  P18  1  0.46032034  0.20751253  0.83332398  1
  P  P19  1  0.49478564  0.50520599  0.00000801  1
  P  P20  1  0.00468526  0.50435396  0.99720674  1
  P  P21  1  0.49564105  0.99531054  0.00280311  1
  P  P22  1  0.95522539  0.20633961  0.82901416  1
  P  P23  1  0.00530877  0.99468081  0.00001130  1
