# generated using pymatgen
data_ZrVP
_symmetry_space_group_name_H-M   'P 1'
_cell_length_a   3.52007086
_cell_length_b   6.63663882
_cell_length_c   7.92389613
_cell_angle_alpha   90.00000000
_cell_angle_beta   90.00000000
_cell_angle_gamma   90.00000000
_symmetry_Int_Tables_number   1
_chemical_formula_structural   ZrVP
_chemical_formula_sum   'Zr4 V4 P4'
_cell_volume   185.11361544
_cell_formula_units_Z   4
loop_
 _symmetry_equiv_pos_site_id
 _symmetry_equiv_pos_as_xyz
  1  'x, y, z'
loop_
 _atom_site_type_symbol
 _atom_site_label
 _atom_site_symmetry_multiplicity
 _atom_site_fract_x
 _atom_site_fract_y
 _atom_site_fract_z
 _atom_site_occupancy
  P  P0  1  0.25000000  0.26237977  0.86364807  1
  P  P1  1  0.75000000  0.73762023  0.13635193  1
  P  P2  1  0.25000000  0.76237977  0.63635193  1
  P  P3  1  0.75000000  0.23762023  0.36364807  1
  V  V4  1  0.75000000  0.87072017  0.44233050  1
  V  V5  1  0.25000000  0.12927983  0.55766950  1
  V  V6  1  0.75000000  0.37072017  0.05766950  1
  V  V7  1  0.25000000  0.62927983  0.94233050  1
  Zr  Zr8  1  0.25000000  0.53914452  0.33050967  1
  Zr  Zr9  1  0.75000000  0.46085548  0.66949033  1
  Zr  Zr10  1  0.25000000  0.03914452  0.16949033  1
  Zr  Zr11  1  0.75000000  0.96085548  0.83050967  1
