# generated using pymatgen
data_BaS3
_symmetry_space_group_name_H-M   'P 1'
_cell_length_a   4.23423884
_cell_length_b   6.98366013
_cell_length_c   6.98366013
_cell_angle_alpha   90.00000000
_cell_angle_beta   90.00000000
_cell_angle_gamma   90.00000000
_symmetry_Int_Tables_number   1
_chemical_formula_structural   BaS3
_chemical_formula_sum   'Ba2 S6'
_cell_volume   206.51021689
_cell_formula_units_Z   2
loop_
 _symmetry_equiv_pos_site_id
 _symmetry_equiv_pos_as_xyz
  1  'x, y, z'
loop_
 _atom_site_type_symbol
 _atom_site_label
 _atom_site_symmetry_multiplicity
 _atom_site_fract_x
 _atom_site_fract_y
 _atom_site_fract_z
 _atom_site_occupancy
  S  S0  1  0.47423778  0.82156674  0.32156674  1
  S  S1  1  0.52576222  0.32156674  0.17843326  1
  S  S2  1  0.21046086  0.00000000  0.50000000  1
  S  S3  1  0.78953914  0.50000000  0.00000000  1
  S  S4  1  0.47423778  0.17843326  0.67843326  1
  S  S5  1  0.52576222  0.67843326  0.82156674  1
  Ba  Ba6  1  0.00000000  0.50000000  0.50000000  1
  Ba  Ba7  1  0.00000000  0.00000000  0.00000000  1
