# generated using pymatgen
data_V2C
_symmetry_space_group_name_H-M   'P 1'
_cell_length_a   4.55693564
_cell_length_b   5.04307549
_cell_length_c   5.73379898
_cell_angle_alpha   90.00000000
_cell_angle_beta   90.00000000
_cell_angle_gamma   90.00000000
_symmetry_Int_Tables_number   1
_chemical_formula_structural   V2C
_chemical_formula_sum   'V8 C4'
_cell_volume   131.76826484
_cell_formula_units_Z   4
loop_
 _symmetry_equiv_pos_site_id
 _symmetry_equiv_pos_as_xyz
  1  'x, y, z'
loop_
 _atom_site_type_symbol
 _atom_site_label
 _atom_site_symmetry_multiplicity
 _atom_site_fract_x
 _atom_site_fract_y
 _atom_site_fract_z
 _atom_site_occupancy
  C  C0  1  0.50000000  0.75000000  0.12723792  1
  C  C1  1  0.00000000  0.25000000  0.37276208  1
  C  C2  1  0.50000000  0.25000000  0.87276208  1
  C  C3  1  0.00000000  0.75000000  0.62723792  1
  V  V4  1  0.24598402  0.07637481  0.11812707  1
  V  V5  1  0.74598402  0.92362519  0.38187293  1
  V  V6  1  0.25401598  0.57637481  0.38187293  1
  V  V7  1  0.75401598  0.42362519  0.11812707  1
  V  V8  1  0.24598402  0.57637481  0.88187293  1
  V  V9  1  0.74598402  0.42362519  0.61812707  1
  V  V10  1  0.25401598  0.07637481  0.61812707  1
  V  V11  1  0.75401598  0.92362519  0.88187293  1
