# generated using pymatgen
data_ScSn2
_symmetry_space_group_name_H-M   'P 1'
_cell_length_a   4.28205567
_cell_length_b   4.28205567
_cell_length_c   15.94725753
_cell_angle_alpha   97.71564664
_cell_angle_beta   97.71564666
_cell_angle_gamma   90.00000007
_symmetry_Int_Tables_number   1
_chemical_formula_structural   ScSn2
_chemical_formula_sum   'Sc4 Sn8'
_cell_volume   287.08990982
_cell_formula_units_Z   4
loop_
 _symmetry_equiv_pos_site_id
 _symmetry_equiv_pos_as_xyz
  1  'x, y, z'
loop_
 _atom_site_type_symbol
 _atom_site_label
 _atom_site_symmetry_multiplicity
 _atom_site_fract_x
 _atom_site_fract_y
 _atom_site_fract_z
 _atom_site_occupancy
  Sc  Sc0  1  0.95158235  0.20158235  0.40316471  1
  Sc  Sc1  1  0.70158235  0.45158235  0.90316471  1
  Sc  Sc2  1  0.04841765  0.79841765  0.59683529  1
  Sc  Sc3  1  0.29841765  0.54841765  0.09683529  1
  Sn  Sn4  1  0.78342305  0.03342305  0.06684611  1
  Sn  Sn5  1  0.53342305  0.28342305  0.56684611  1
  Sn  Sn6  1  0.21657695  0.96657695  0.93315389  1
  Sn  Sn7  1  0.46657695  0.71657695  0.43315389  1
  Sn  Sn8  1  0.12500000  0.37500000  0.75000000  1
  Sn  Sn9  1  0.87500000  0.62500000  0.25000000  1
  Sn  Sn10  1  0.37500000  0.12500000  0.25000000  1
  Sn  Sn11  1  0.62500000  0.87500000  0.75000000  1
