# generated using pymatgen
data_NbCoP
_symmetry_space_group_name_H-M   'P 1'
_cell_length_a   3.60489519
_cell_length_b   6.14123154
_cell_length_c   6.96271999
_cell_angle_alpha   90.00000000
_cell_angle_beta   90.00000000
_cell_angle_gamma   90.00000000
_symmetry_Int_Tables_number   1
_chemical_formula_structural   NbCoP
_chemical_formula_sum   'Nb4 Co4 P4'
_cell_volume   154.14414892
_cell_formula_units_Z   4
loop_
 _symmetry_equiv_pos_site_id
 _symmetry_equiv_pos_as_xyz
  1  'x, y, z'
loop_
 _atom_site_type_symbol
 _atom_site_label
 _atom_site_symmetry_multiplicity
 _atom_site_fract_x
 _atom_site_fract_y
 _atom_site_fract_z
 _atom_site_occupancy
  Nb  Nb0  1  0.75000000  0.47417607  0.67314471  1
  Nb  Nb1  1  0.75000000  0.97417607  0.82685529  1
  Nb  Nb2  1  0.25000000  0.52582393  0.32685529  1
  Nb  Nb3  1  0.25000000  0.02582393  0.17314471  1
  Co  Co4  1  0.75000000  0.35335016  0.06164772  1
  Co  Co5  1  0.75000000  0.85335016  0.43835228  1
  Co  Co6  1  0.25000000  0.64664984  0.93835228  1
  Co  Co7  1  0.25000000  0.14664984  0.56164772  1
  P  P8  1  0.75000000  0.72106518  0.11981213  1
  P  P9  1  0.75000000  0.22106518  0.38018787  1
  P  P10  1  0.25000000  0.27893482  0.88018787  1
  P  P11  1  0.25000000  0.77893482  0.61981213  1
