# generated using pymatgen
data_Fe5C2
_symmetry_space_group_name_H-M   'P 1'
_cell_length_a   4.50732175
_cell_length_b   4.98962634
_cell_length_c   6.22366465
_cell_angle_alpha   97.05804006
_cell_angle_beta   111.22993057
_cell_angle_gamma   90.00000004
_symmetry_Int_Tables_number   1
_chemical_formula_structural   Fe5C2
_chemical_formula_sum   'Fe10 C4'
_cell_volume   129.33170422
_cell_formula_units_Z   2
loop_
 _symmetry_equiv_pos_site_id
 _symmetry_equiv_pos_as_xyz
  1  'x, y, z'
loop_
 _atom_site_type_symbol
 _atom_site_label
 _atom_site_symmetry_multiplicity
 _atom_site_fract_x
 _atom_site_fract_y
 _atom_site_fract_z
 _atom_site_occupancy
  C  C0  1  0.57247474  0.42128888  0.77388513  1
  C  C1  1  0.79858961  0.07871112  0.22611487  1
  C  C2  1  0.42752526  0.57871112  0.22611487  1
  C  C3  1  0.20141039  0.92128888  0.77388513  1
  Fe  Fe4  1  0.01502203  0.41699444  0.19678898  1
  Fe  Fe5  1  0.81823305  0.08300556  0.80321102  1
  Fe  Fe6  1  0.36757682  0.68938763  0.57137354  1
  Fe  Fe7  1  0.79620328  0.81061237  0.42862646  1
  Fe  Fe8  1  0.63242318  0.31061237  0.42862646  1
  Fe  Fe9  1  0.20379672  0.18938763  0.57137354  1
  Fe  Fe10  1  0.18176695  0.91699444  0.19678898  1
  Fe  Fe11  1  0.98497797  0.58300556  0.80321102  1
  Fe  Fe12  1  0.43277523  0.25000000  0.00000000  1
  Fe  Fe13  1  0.56722477  0.75000000  0.00000000  1
