# generated using pymatgen
data_Rb2PdBr6
_symmetry_space_group_name_H-M   'P 1'
_cell_length_a   7.58112461
_cell_length_b   7.58112461
_cell_length_c   7.58112461
_cell_angle_alpha   60.00000002
_cell_angle_beta   60.00000003
_cell_angle_gamma   59.99999999
_symmetry_Int_Tables_number   1
_chemical_formula_structural   Rb2PdBr6
_chemical_formula_sum   'Rb2 Pd1 Br6'
_cell_volume   308.09589168
_cell_formula_units_Z   1
loop_
 _symmetry_equiv_pos_site_id
 _symmetry_equiv_pos_as_xyz
  1  'x, y, z'
loop_
 _atom_site_type_symbol
 _atom_site_label
 _atom_site_symmetry_multiplicity
 _atom_site_fract_x
 _atom_site_fract_y
 _atom_site_fract_z
 _atom_site_occupancy
  Br  Br0  1  0.23443760  0.76556240  0.76556240  1
  Br  Br1  1  0.23443760  0.76556240  0.23443760  1
  Br  Br2  1  0.76556240  0.23443760  0.76556240  1
  Br  Br3  1  0.76556240  0.23443760  0.23443760  1
  Br  Br4  1  0.76556240  0.76556240  0.23443760  1
  Br  Br5  1  0.23443760  0.23443760  0.76556240  1
  Rb  Rb6  1  0.75000000  0.75000000  0.75000000  1
  Rb  Rb7  1  0.25000000  0.25000000  0.25000000  1
  Pd  Pd8  1  0.00000000  0.00000000  0.00000000  1
