# generated using pymatgen
data_Hf2CoP
_symmetry_space_group_name_H-M   'P 1'
_cell_length_a   3.60649756
_cell_length_b   5.18585974
_cell_length_c   7.44793298
_cell_angle_alpha   111.40369063
_cell_angle_beta   90.00000000
_cell_angle_gamma   90.00000000
_symmetry_Int_Tables_number   1
_chemical_formula_structural   Hf2CoP
_chemical_formula_sum   'Hf4 Co2 P2'
_cell_volume   129.69012901
_cell_formula_units_Z   2
loop_
 _symmetry_equiv_pos_site_id
 _symmetry_equiv_pos_as_xyz
  1  'x, y, z'
loop_
 _atom_site_type_symbol
 _atom_site_label
 _atom_site_symmetry_multiplicity
 _atom_site_fract_x
 _atom_site_fract_y
 _atom_site_fract_z
 _atom_site_occupancy
  P  P0  1  0.25000000  0.34834297  0.21081068  1
  P  P1  1  0.75000000  0.65165703  0.78918932  1
  Co  Co2  1  0.25000000  0.35211291  0.71047483  1
  Co  Co3  1  0.75000000  0.64788709  0.28952517  1
  Hf  Hf4  1  0.25000000  0.79252917  0.56504281  1
  Hf  Hf5  1  0.75000000  0.20747083  0.43495719  1
  Hf  Hf6  1  0.25000000  0.78655351  0.08079152  1
  Hf  Hf7  1  0.75000000  0.21344649  0.91920848  1
