# generated using pymatgen
data_GePtSe
_symmetry_space_group_name_H-M   'P 1'
_cell_length_a   6.09192452
_cell_length_b   6.15113527
_cell_length_c   6.07759336
_cell_angle_alpha   90.00000000
_cell_angle_beta   90.00000000
_cell_angle_gamma   90.00000000
_symmetry_Int_Tables_number   1
_chemical_formula_structural   GePtSe
_chemical_formula_sum   'Ge4 Pt4 Se4'
_cell_volume   227.74110859
_cell_formula_units_Z   4
loop_
 _symmetry_equiv_pos_site_id
 _symmetry_equiv_pos_as_xyz
  1  'x, y, z'
loop_
 _atom_site_type_symbol
 _atom_site_label
 _atom_site_symmetry_multiplicity
 _atom_site_fract_x
 _atom_site_fract_y
 _atom_site_fract_z
 _atom_site_occupancy
  Ge  Ge0  1  0.88069547  0.87439042  0.61854925  1
  Ge  Ge1  1  0.11930453  0.12560958  0.11854925  1
  Ge  Ge2  1  0.61930453  0.87439042  0.11854925  1
  Ge  Ge3  1  0.38069547  0.12560958  0.61854925  1
  Pt  Pt4  1  0.49228025  0.24012530  0.99639352  1
  Pt  Pt5  1  0.50771975  0.75987470  0.49639352  1
  Pt  Pt6  1  0.00771975  0.24012530  0.49639352  1
  Pt  Pt7  1  0.99228025  0.75987470  0.99639352  1
  Se  Se8  1  0.11610040  0.63632813  0.38405724  1
  Se  Se9  1  0.88389960  0.36367187  0.88405724  1
  Se  Se10  1  0.38389960  0.63632813  0.88405724  1
  Se  Se11  1  0.61610040  0.36367187  0.38405724  1
