# generated using pymatgen
data_NbSe2
_symmetry_space_group_name_H-M   'P 1'
_cell_length_a   6.96838625
_cell_length_b   6.96838646
_cell_length_c   13.08275213
_cell_angle_alpha   90.00000000
_cell_angle_beta   90.00000000
_cell_angle_gamma   119.99999907
_symmetry_Int_Tables_number   1
_chemical_formula_structural   NbSe2
_chemical_formula_sum   'Nb8 Se16'
_cell_volume   550.16656286
_cell_formula_units_Z   8
loop_
 _symmetry_equiv_pos_site_id
 _symmetry_equiv_pos_as_xyz
  1  'x, y, z'
loop_
 _atom_site_type_symbol
 _atom_site_label
 _atom_site_symmetry_multiplicity
 _atom_site_fract_x
 _atom_site_fract_y
 _atom_site_fract_z
 _atom_site_occupancy
  Nb  Nb0  1  0.49746276  0.99492552  0.25000000  1
  Nb  Nb1  1  0.50253724  0.00507448  0.75000000  1
  Nb  Nb2  1  0.50253724  0.49746276  0.75000000  1
  Nb  Nb3  1  0.00507448  0.50253724  0.25000000  1
  Nb  Nb4  1  0.99492552  0.49746276  0.75000000  1
  Nb  Nb5  1  0.00000000  0.00000000  0.25000000  1
  Nb  Nb6  1  0.49746276  0.50253724  0.25000000  1
  Nb  Nb7  1  0.00000000  0.00000000  0.75000000  1
  Se  Se8  1  0.16614542  0.33229085  0.12017581  1
  Se  Se9  1  0.16614542  0.33229085  0.37982419  1
  Se  Se10  1  0.83385458  0.16614542  0.87982419  1
  Se  Se11  1  0.33229085  0.16614542  0.62017581  1
  Se  Se12  1  0.83385458  0.16614542  0.62017581  1
  Se  Se13  1  0.16614542  0.83385458  0.12017581  1
  Se  Se14  1  0.83385458  0.66770915  0.62017581  1
  Se  Se15  1  0.16614542  0.83385458  0.37982419  1
  Se  Se16  1  0.66666700  0.33333300  0.37717855  1
  Se  Se17  1  0.83385458  0.66770915  0.87982419  1
  Se  Se18  1  0.33333300  0.66666700  0.87717855  1
  Se  Se19  1  0.33333300  0.66666700  0.62282145  1
  Se  Se20  1  0.33229085  0.16614542  0.87982419  1
  Se  Se21  1  0.66770915  0.83385458  0.37982419  1
  Se  Se22  1  0.66770915  0.83385458  0.12017581  1
  Se  Se23  1  0.66666700  0.33333300  0.12282145  1
