# generated using pymatgen
data_HfCuSi
_symmetry_space_group_name_H-M   'P 1'
_cell_length_a   3.88783122
_cell_length_b   6.45564857
_cell_length_c   7.28867051
_cell_angle_alpha   90.00000000
_cell_angle_beta   90.00000000
_cell_angle_gamma   90.00000000
_symmetry_Int_Tables_number   1
_chemical_formula_structural   HfCuSi
_chemical_formula_sum   'Hf4 Si4 Cu4'
_cell_volume   182.93449312
_cell_formula_units_Z   4
loop_
 _symmetry_equiv_pos_site_id
 _symmetry_equiv_pos_as_xyz
  1  'x, y, z'
loop_
 _atom_site_type_symbol
 _atom_site_label
 _atom_site_symmetry_multiplicity
 _atom_site_fract_x
 _atom_site_fract_y
 _atom_site_fract_z
 _atom_site_occupancy
  Si  Si0  1  0.25000000  0.27760561  0.89563229  1
  Si  Si1  1  0.75000000  0.72239439  0.10436771  1
  Si  Si2  1  0.25000000  0.77760561  0.60436771  1
  Si  Si3  1  0.75000000  0.22239439  0.39563229  1
  Cu  Cu4  1  0.75000000  0.83379288  0.42478884  1
  Cu  Cu5  1  0.25000000  0.16620712  0.57521116  1
  Cu  Cu6  1  0.75000000  0.33379288  0.07521116  1
  Cu  Cu7  1  0.25000000  0.66620712  0.92478884  1
  Hf  Hf8  1  0.25000000  0.51193264  0.30968985  1
  Hf  Hf9  1  0.75000000  0.48806736  0.69031015  1
  Hf  Hf10  1  0.25000000  0.01193264  0.19031015  1
  Hf  Hf11  1  0.75000000  0.98806736  0.80968985  1
