# generated using pymatgen
data_HfAs2
_symmetry_space_group_name_H-M   'P 1'
_cell_length_a   3.70935338
_cell_length_b   6.82987372
_cell_length_c   9.02956237
_cell_angle_alpha   90.00000000
_cell_angle_beta   90.00000000
_cell_angle_gamma   90.00000000
_symmetry_Int_Tables_number   1
_chemical_formula_structural   HfAs2
_chemical_formula_sum   'Hf4 As8'
_cell_volume   228.75868187
_cell_formula_units_Z   4
loop_
 _symmetry_equiv_pos_site_id
 _symmetry_equiv_pos_as_xyz
  1  'x, y, z'
loop_
 _atom_site_type_symbol
 _atom_site_label
 _atom_site_symmetry_multiplicity
 _atom_site_fract_x
 _atom_site_fract_y
 _atom_site_fract_z
 _atom_site_occupancy
  As  As0  1  0.25000000  0.41954356  0.35265208  1
  As  As1  1  0.75000000  0.58045644  0.64734792  1
  As  As2  1  0.25000000  0.91954356  0.14734792  1
  As  As3  1  0.75000000  0.08045644  0.85265208  1
  As  As4  1  0.75000000  0.12048671  0.45742158  1
  As  As5  1  0.25000000  0.87951329  0.54257842  1
  As  As6  1  0.75000000  0.62048671  0.04257842  1
  As  As7  1  0.25000000  0.37951329  0.95742158  1
  Hf  Hf8  1  0.25000000  0.27197810  0.66188769  1
  Hf  Hf9  1  0.75000000  0.72802190  0.33811231  1
  Hf  Hf10  1  0.25000000  0.77197810  0.83811231  1
  Hf  Hf11  1  0.75000000  0.22802190  0.16188769  1
