# generated using pymatgen
data_SbRh2
_symmetry_space_group_name_H-M   'P 1'
_cell_length_a   4.22276836
_cell_length_b   5.84719142
_cell_length_c   8.05157955
_cell_angle_alpha   90.00000000
_cell_angle_beta   90.00000000
_cell_angle_gamma   90.00000000
_symmetry_Int_Tables_number   1
_chemical_formula_structural   SbRh2
_chemical_formula_sum   'Sb4 Rh8'
_cell_volume   198.80424733
_cell_formula_units_Z   4
loop_
 _symmetry_equiv_pos_site_id
 _symmetry_equiv_pos_as_xyz
  1  'x, y, z'
loop_
 _atom_site_type_symbol
 _atom_site_label
 _atom_site_symmetry_multiplicity
 _atom_site_fract_x
 _atom_site_fract_y
 _atom_site_fract_z
 _atom_site_occupancy
  Rh  Rh0  1  0.75000000  0.15901473  0.93040163  1
  Rh  Rh1  1  0.25000000  0.84098527  0.06959837  1
  Rh  Rh2  1  0.75000000  0.65901473  0.56959837  1
  Rh  Rh3  1  0.25000000  0.34098527  0.43040163  1
  Rh  Rh4  1  0.75000000  0.03905821  0.30028534  1
  Rh  Rh5  1  0.25000000  0.96094179  0.69971466  1
  Rh  Rh6  1  0.75000000  0.53905821  0.19971466  1
  Rh  Rh7  1  0.25000000  0.46094179  0.80028534  1
  Sb  Sb8  1  0.75000000  0.71612828  0.89244963  1
  Sb  Sb9  1  0.25000000  0.28387172  0.10755037  1
  Sb  Sb10  1  0.75000000  0.21612828  0.60755037  1
  Sb  Sb11  1  0.25000000  0.78387172  0.39244963  1
