# generated using pymatgen
data_ScFeSi
_symmetry_space_group_name_H-M   'P 1'
_cell_length_a   4.05419883
_cell_length_b   6.53506689
_cell_length_c   6.66402371
_cell_angle_alpha   90.00000000
_cell_angle_beta   90.00000000
_cell_angle_gamma   90.00000000
_symmetry_Int_Tables_number   1
_chemical_formula_structural   ScFeSi
_chemical_formula_sum   'Sc4 Fe4 Si4'
_cell_volume   176.55971322
_cell_formula_units_Z   4
loop_
 _symmetry_equiv_pos_site_id
 _symmetry_equiv_pos_as_xyz
  1  'x, y, z'
loop_
 _atom_site_type_symbol
 _atom_site_label
 _atom_site_symmetry_multiplicity
 _atom_site_fract_x
 _atom_site_fract_y
 _atom_site_fract_z
 _atom_site_occupancy
  Si  Si0  1  0.25000000  0.79915386  0.10768077  1
  Si  Si1  1  0.25000000  0.29915386  0.39231923  1
  Si  Si2  1  0.75000000  0.20084614  0.89231923  1
  Si  Si3  1  0.75000000  0.70084614  0.60768077  1
  Sc  Sc4  1  0.75000000  0.51255297  0.19128375  1
  Sc  Sc5  1  0.25000000  0.98744703  0.69128375  1
  Sc  Sc6  1  0.75000000  0.01255297  0.30871625  1
  Sc  Sc7  1  0.25000000  0.48744703  0.80871625  1
  Fe  Fe8  1  0.25000000  0.65351558  0.43784665  1
  Fe  Fe9  1  0.25000000  0.15351558  0.06215335  1
  Fe  Fe10  1  0.75000000  0.84648442  0.93784665  1
  Fe  Fe11  1  0.75000000  0.34648442  0.56215335  1
