# generated using pymatgen
data_Cd2As3I
_symmetry_space_group_name_H-M   'P 1'
_cell_length_a   6.51451328
_cell_length_b   6.51451328
_cell_length_c   8.16463232
_cell_angle_alpha   97.00865975
_cell_angle_beta   97.00865980
_cell_angle_gamma   97.33774261
_symmetry_Int_Tables_number   1
_chemical_formula_structural   Cd2As3I
_chemical_formula_sum   'Cd4 As6 I2'
_cell_volume   337.74347341
_cell_formula_units_Z   2
loop_
 _symmetry_equiv_pos_site_id
 _symmetry_equiv_pos_as_xyz
  1  'x, y, z'
loop_
 _atom_site_type_symbol
 _atom_site_label
 _atom_site_symmetry_multiplicity
 _atom_site_fract_x
 _atom_site_fract_y
 _atom_site_fract_z
 _atom_site_occupancy
  As  As0  1  0.67952705  0.58415771  0.74154732  1
  As  As1  1  0.58415771  0.67952705  0.24154732  1
  As  As2  1  0.54702696  0.96517024  0.46170715  1
  As  As3  1  0.96517024  0.54702696  0.96170715  1
  As  As4  1  0.83256947  0.92678513  0.68131892  1
  As  As5  1  0.92678513  0.83256947  0.18131892  1
  Cd  Cd6  1  0.85439749  0.14436847  0.00086370  1
  Cd  Cd7  1  0.36723668  0.65516495  0.92070193  1
  Cd  Cd8  1  0.14436847  0.85439749  0.50086370  1
  Cd  Cd9  1  0.65516495  0.36723668  0.42070193  1
  I  I10  1  0.12876637  0.38322947  0.46516098  1
  I  I11  1  0.38322947  0.12876637  0.96516098  1
