# generated using pymatgen
data_YCo3
_symmetry_space_group_name_H-M   'P 1'
_cell_length_a   8.62248521
_cell_length_b   8.62248521
_cell_length_c   8.62248520
_cell_angle_alpha   33.66799503
_cell_angle_beta   33.66799502
_cell_angle_gamma   33.66799501
_symmetry_Int_Tables_number   1
_chemical_formula_structural   YCo3
_chemical_formula_sum   'Y3 Co9'
_cell_volume   175.52298024
_cell_formula_units_Z   3
loop_
 _symmetry_equiv_pos_site_id
 _symmetry_equiv_pos_as_xyz
  1  'x, y, z'
loop_
 _atom_site_type_symbol
 _atom_site_label
 _atom_site_symmetry_multiplicity
 _atom_site_fract_x
 _atom_site_fract_y
 _atom_site_fract_z
 _atom_site_occupancy
  Co  Co0  1  0.41783806  0.41783806  0.92123912  1
  Co  Co1  1  0.41783806  0.92123912  0.41783806  1
  Co  Co2  1  0.92123912  0.41783806  0.41783806  1
  Co  Co3  1  0.50000000  0.50000000  0.50000000  1
  Co  Co4  1  0.33472519  0.33472519  0.33472519  1
  Co  Co5  1  0.66527481  0.66527481  0.66527481  1
  Co  Co6  1  0.58216194  0.07876088  0.58216194  1
  Co  Co7  1  0.58216194  0.58216194  0.07876088  1
  Co  Co8  1  0.07876088  0.58216194  0.58216194  1
  Y  Y9  1  0.86030517  0.86030517  0.86030517  1
  Y  Y10  1  0.13969483  0.13969483  0.13969483  1
  Y  Y11  1  0.00000000  0.00000000  0.00000000  1
