# generated using pymatgen
data_Cd(InTe2)2
_symmetry_space_group_name_H-M   'P 1'
_cell_length_a   6.42423697
_cell_length_b   6.42423697
_cell_length_c   7.79038211
_cell_angle_alpha   114.35056129
_cell_angle_beta   114.35056134
_cell_angle_gamma   90.00000004
_symmetry_Int_Tables_number   1
_chemical_formula_structural   Cd(InTe2)2
_chemical_formula_sum   'Cd1 In2 Te4'
_cell_volume   261.19781402
_cell_formula_units_Z   1
loop_
 _symmetry_equiv_pos_site_id
 _symmetry_equiv_pos_as_xyz
  1  'x, y, z'
loop_
 _atom_site_type_symbol
 _atom_site_label
 _atom_site_symmetry_multiplicity
 _atom_site_fract_x
 _atom_site_fract_y
 _atom_site_fract_z
 _atom_site_occupancy
  Cd  Cd0  1  0.00000000  0.00000000  0.00000000  1
  In  In1  1  0.50000000  0.50000000  0.00000000  1
  In  In2  1  0.25000000  0.75000000  0.50000000  1
  Te  Te3  1  0.41067305  0.36801777  0.27367488  1
  Te  Te4  1  0.09434290  0.58932695  0.72632512  1
  Te  Te5  1  0.63198223  0.13699818  0.72632512  1
  Te  Te6  1  0.86300182  0.90565710  0.27367488  1
