# generated using pymatgen
data_Si3P2Pt
_symmetry_space_group_name_H-M   'P 1'
_cell_length_a   4.88913268
_cell_length_b   5.52394234
_cell_length_c   8.14951396
_cell_angle_alpha   91.39412571
_cell_angle_beta   93.52586118
_cell_angle_gamma   107.95165814
_symmetry_Int_Tables_number   1
_chemical_formula_structural   Si3P2Pt
_chemical_formula_sum   'Si6 P4 Pt2'
_cell_volume   208.76770937
_cell_formula_units_Z   2
loop_
 _symmetry_equiv_pos_site_id
 _symmetry_equiv_pos_as_xyz
  1  'x, y, z'
loop_
 _atom_site_type_symbol
 _atom_site_label
 _atom_site_symmetry_multiplicity
 _atom_site_fract_x
 _atom_site_fract_y
 _atom_site_fract_z
 _atom_site_occupancy
  Si  Si0  1  0.66695683  0.60775028  0.07352750  1
  Si  Si1  1  0.17795773  0.75499835  0.80410521  1
  Si  Si2  1  0.66657803  0.96244116  0.75482426  1
  Si  Si3  1  0.56106324  0.33128982  0.66991458  1
  Si  Si4  1  0.35330275  0.02454553  0.23327484  1
  Si  Si5  1  0.05664979  0.45260968  0.39638485  1
  P  P6  1  0.19238927  0.11823427  0.47955571  1
  P  P7  1  0.29502584  0.39708442  0.88556683  1
  P  P8  1  0.49500983  0.69197728  0.31809646  1
  P  P9  1  0.79515294  0.26983394  0.16352344  1
  Pt  Pt10  1  0.85228004  0.71621629  0.55807991  1
  Pt  Pt11  1  -0.00016630  -0.00127103  0.00081641  1
