# generated using pymatgen
data_PdSe2
_symmetry_space_group_name_H-M   'P 1'
_cell_length_a   5.79441832
_cell_length_b   5.94542204
_cell_length_c   8.58506072
_cell_angle_alpha   90.00000000
_cell_angle_beta   90.00000000
_cell_angle_gamma   90.00000000
_symmetry_Int_Tables_number   1
_chemical_formula_structural   PdSe2
_chemical_formula_sum   'Pd4 Se8'
_cell_volume   295.75759443
_cell_formula_units_Z   4
loop_
 _symmetry_equiv_pos_site_id
 _symmetry_equiv_pos_as_xyz
  1  'x, y, z'
loop_
 _atom_site_type_symbol
 _atom_site_label
 _atom_site_symmetry_multiplicity
 _atom_site_fract_x
 _atom_site_fract_y
 _atom_site_fract_z
 _atom_site_occupancy
  Se  Se0  1  0.61129970  0.11935598  0.08589069  1
  Se  Se1  1  0.11129970  0.38064402  0.91410931  1
  Se  Se2  1  0.38870030  0.61935598  0.41410931  1
  Se  Se3  1  0.88870030  0.88064402  0.58589069  1
  Se  Se4  1  0.11129970  0.11935598  0.41410931  1
  Se  Se5  1  0.61129970  0.38064402  0.58589069  1
  Se  Se6  1  0.88870030  0.61935598  0.08589069  1
  Se  Se7  1  0.38870030  0.88064402  0.91410931  1
  Pd  Pd8  1  0.50000000  0.00000000  0.50000000  1
  Pd  Pd9  1  0.00000000  0.50000000  0.50000000  1
  Pd  Pd10  1  0.50000000  0.50000000  0.00000000  1
  Pd  Pd11  1  0.00000000  0.00000000  0.00000000  1
