# generated using pymatgen
data_Ti8C5
_symmetry_space_group_name_H-M   'P 1'
_cell_length_a   6.09880892
_cell_length_b   6.09880847
_cell_length_c   6.09880850
_cell_angle_alpha   60.43280111
_cell_angle_beta   60.43280351
_cell_angle_gamma   60.43279971
_symmetry_Int_Tables_number   1
_chemical_formula_structural   Ti8C5
_chemical_formula_sum   'Ti8 C5'
_cell_volume   161.97544153
_cell_formula_units_Z   1
loop_
 _symmetry_equiv_pos_site_id
 _symmetry_equiv_pos_as_xyz
  1  'x, y, z'
loop_
 _atom_site_type_symbol
 _atom_site_label
 _atom_site_symmetry_multiplicity
 _atom_site_fract_x
 _atom_site_fract_y
 _atom_site_fract_z
 _atom_site_occupancy
  Ti  Ti0  1  0.75780482  0.75780482  0.75780482  1
  Ti  Ti1  1  0.23855983  0.75244028  0.75244028  1
  Ti  Ti2  1  0.76590976  0.25173772  0.25173772  1
  Ti  Ti3  1  0.75244028  0.23855983  0.75244028  1
  Ti  Ti4  1  0.25173772  0.76590976  0.25173772  1
  Ti  Ti5  1  0.24654852  0.24654852  0.24654852  1
  Ti  Ti6  1  0.25173772  0.25173772  0.76590976  1
  Ti  Ti7  1  0.75244028  0.75244028  0.23855983  1
  C  C8  1  0.00224338  0.00224338  0.50212119  1
  C  C9  1  0.50212119  0.00224338  0.00224338  1
  C  C10  1  0.00224338  0.50212119  0.00224338  1
  C  C11  1  0.50198569  0.50198569  0.50198569  1
  C  C12  1  0.00212744  0.00212744  0.00212744  1
