# generated using pymatgen
data_TiP2
_symmetry_space_group_name_H-M   'P 1'
_cell_length_a   3.34984253
_cell_length_b   6.17037123
_cell_length_c   8.27962969
_cell_angle_alpha   90.00000000
_cell_angle_beta   90.00000000
_cell_angle_gamma   90.00000000
_symmetry_Int_Tables_number   1
_chemical_formula_structural   TiP2
_chemical_formula_sum   'Ti4 P8'
_cell_volume   171.13805771
_cell_formula_units_Z   4
loop_
 _symmetry_equiv_pos_site_id
 _symmetry_equiv_pos_as_xyz
  1  'x, y, z'
loop_
 _atom_site_type_symbol
 _atom_site_label
 _atom_site_symmetry_multiplicity
 _atom_site_fract_x
 _atom_site_fract_y
 _atom_site_fract_z
 _atom_site_occupancy
  Ti  Ti0  1  0.75000000  0.23530558  0.66727634  1
  Ti  Ti1  1  0.75000000  0.73530558  0.83272366  1
  Ti  Ti2  1  0.25000000  0.76469442  0.33272366  1
  Ti  Ti3  1  0.25000000  0.26469442  0.16727634  1
  P  P4  1  0.75000000  0.62215786  0.53967011  1
  P  P5  1  0.75000000  0.12215786  0.96032989  1
  P  P6  1  0.25000000  0.37784214  0.46032989  1
  P  P7  1  0.25000000  0.87784214  0.03967011  1
  P  P8  1  0.75000000  0.58443411  0.13496012  1
  P  P9  1  0.75000000  0.08443411  0.36503988  1
  P  P10  1  0.25000000  0.41556589  0.86503988  1
  P  P11  1  0.25000000  0.91556589  0.63496012  1
