# generated using pymatgen
data_Ti5Sb3
_symmetry_space_group_name_H-M   'P 1'
_cell_length_a   7.20851290
_cell_length_b   8.36681442
_cell_length_c   10.19097294
_cell_angle_alpha   90.00000000
_cell_angle_beta   90.00000000
_cell_angle_gamma   90.00000000
_symmetry_Int_Tables_number   1
_chemical_formula_structural   Ti5Sb3
_chemical_formula_sum   'Ti20 Sb12'
_cell_volume   614.64091206
_cell_formula_units_Z   4
loop_
 _symmetry_equiv_pos_site_id
 _symmetry_equiv_pos_as_xyz
  1  'x, y, z'
loop_
 _atom_site_type_symbol
 _atom_site_label
 _atom_site_symmetry_multiplicity
 _atom_site_fract_x
 _atom_site_fract_y
 _atom_site_fract_z
 _atom_site_occupancy
  Ti  Ti0  1  0.79515981  0.93755763  0.94784129  1
  Ti  Ti1  1  0.29515981  0.06244237  0.55215871  1
  Ti  Ti2  1  0.20484019  0.43755763  0.05215871  1
  Ti  Ti3  1  0.70484019  0.56244237  0.44784129  1
  Ti  Ti4  1  0.20484019  0.06244237  0.05215871  1
  Ti  Ti5  1  0.70484019  0.93755763  0.44784129  1
  Ti  Ti6  1  0.79515981  0.56244237  0.94784129  1
  Ti  Ti7  1  0.29515981  0.43755763  0.55215871  1
  Ti  Ti8  1  0.18314773  0.75000000  0.76545783  1
  Ti  Ti9  1  0.68314773  0.25000000  0.73454217  1
  Ti  Ti10  1  0.81685227  0.25000000  0.23454217  1
  Ti  Ti11  1  0.31685227  0.75000000  0.26545783  1
  Ti  Ti12  1  0.47787359  0.75000000  0.99553962  1
  Ti  Ti13  1  0.97787359  0.25000000  0.50446038  1
  Ti  Ti14  1  0.52212641  0.25000000  0.00446038  1
  Ti  Ti15  1  0.02212641  0.75000000  0.49553962  1
  Ti  Ti16  1  0.67611111  0.75000000  0.71725900  1
  Ti  Ti17  1  0.17611111  0.25000000  0.78274100  1
  Ti  Ti18  1  0.32388889  0.25000000  0.28274100  1
  Ti  Ti19  1  0.82388889  0.75000000  0.21725900  1
  Sb  Sb20  1  0.93647067  0.50837327  0.67907619  1
  Sb  Sb21  1  0.43647067  0.49162673  0.82092381  1
  Sb  Sb22  1  0.06352933  0.00837327  0.32092381  1
  Sb  Sb23  1  0.56352933  0.99162673  0.17907619  1
  Sb  Sb24  1  0.06352933  0.49162673  0.32092381  1
  Sb  Sb25  1  0.56352933  0.50837327  0.17907619  1
  Sb  Sb26  1  0.93647067  0.99162673  0.67907619  1
  Sb  Sb27  1  0.43647067  0.00837327  0.82092381  1
  Sb  Sb28  1  0.40911984  0.75000000  0.52718213  1
  Sb  Sb29  1  0.90911984  0.25000000  0.97281787  1
  Sb  Sb30  1  0.59088016  0.25000000  0.47281787  1
  Sb  Sb31  1  0.09088016  0.75000000  0.02718213  1
