# generated using pymatgen
data_Sc2O3
_symmetry_space_group_name_H-M   'P 1'
_cell_length_a   8.58540154
_cell_length_b   8.58540154
_cell_length_c   8.58540154
_cell_angle_alpha   109.47122060
_cell_angle_beta   109.47122061
_cell_angle_gamma   109.47122065
_symmetry_Int_Tables_number   1
_chemical_formula_structural   Sc2O3
_chemical_formula_sum   'Sc16 O24'
_cell_volume   487.14690276
_cell_formula_units_Z   8
loop_
 _symmetry_equiv_pos_site_id
 _symmetry_equiv_pos_as_xyz
  1  'x, y, z'
loop_
 _atom_site_type_symbol
 _atom_site_label
 _atom_site_symmetry_multiplicity
 _atom_site_fract_x
 _atom_site_fract_y
 _atom_site_fract_z
 _atom_site_occupancy
  O  O0  1  0.53555154  0.77265339  0.54600634  1
  O  O1  1  0.98954521  0.95399366  0.72664706  1
  O  O2  1  0.26289815  0.77335294  0.72734661  1
  O  O3  1  0.51045479  0.23710185  0.96444846  1
  O  O4  1  0.95399366  0.72664706  0.98954521  1
  O  O5  1  0.72734661  0.26289815  0.77335294  1
  O  O6  1  0.23710185  0.96444846  0.51045479  1
  O  O7  1  0.54600634  0.53555154  0.77265339  1
  O  O8  1  0.77265339  0.54600634  0.53555154  1
  O  O9  1  0.72664706  0.98954521  0.95399366  1
  O  O10  1  0.77335294  0.72734661  0.26289815  1
  O  O11  1  0.96444846  0.51045479  0.23710185  1
  O  O12  1  0.46444846  0.22734661  0.45399366  1
  O  O13  1  0.01045479  0.04600634  0.27335294  1
  O  O14  1  0.73710185  0.22664706  0.27265339  1
  O  O15  1  0.48954521  0.76289815  0.03555154  1
  O  O16  1  0.04600634  0.27335294  0.01045479  1
  O  O17  1  0.27265339  0.73710185  0.22664706  1
  O  O18  1  0.76289815  0.03555154  0.48954521  1
  O  O19  1  0.45399366  0.46444846  0.22734661  1
  O  O20  1  0.22734661  0.45399366  0.46444846  1
  O  O21  1  0.27335294  0.01045479  0.04600634  1
  O  O22  1  0.22664706  0.27265339  0.73710185  1
  O  O23  1  0.03555154  0.48954521  0.76289815  1
  Sc  Sc24  1  0.50000000  0.50000000  0.50000000  1
  Sc  Sc25  1  0.00000000  0.00000000  0.50000000  1
  Sc  Sc26  1  0.50000000  0.00000000  0.00000000  1
  Sc  Sc27  1  0.00000000  0.50000000  0.00000000  1
  Sc  Sc28  1  0.25000000  0.21398328  0.96398328  1
  Sc  Sc29  1  0.28601672  0.53601672  0.75000000  1
  Sc  Sc30  1  0.53601672  0.75000000  0.28601672  1
  Sc  Sc31  1  0.21398328  0.96398328  0.25000000  1
  Sc  Sc32  1  0.96398328  0.25000000  0.21398328  1
  Sc  Sc33  1  0.75000000  0.28601672  0.53601672  1
  Sc  Sc34  1  0.75000000  0.78601672  0.03601672  1
  Sc  Sc35  1  0.71398328  0.46398328  0.25000000  1
  Sc  Sc36  1  0.46398328  0.25000000  0.71398328  1
  Sc  Sc37  1  0.78601672  0.03601672  0.75000000  1
  Sc  Sc38  1  0.03601672  0.75000000  0.78601672  1
  Sc  Sc39  1  0.25000000  0.71398328  0.46398328  1
