# generated using pymatgen
data_YCu2
_symmetry_space_group_name_H-M   'P 1'
_cell_length_a   4.26863195
_cell_length_b   5.44497937
_cell_length_c   5.44497937
_cell_angle_alpha   78.58851628
_cell_angle_beta   66.92232344
_cell_angle_gamma   66.92232344
_symmetry_Int_Tables_number   1
_chemical_formula_structural   YCu2
_chemical_formula_sum   'Y2 Cu4'
_cell_volume   106.96442142
_cell_formula_units_Z   2
loop_
 _symmetry_equiv_pos_site_id
 _symmetry_equiv_pos_as_xyz
  1  'x, y, z'
loop_
 _atom_site_type_symbol
 _atom_site_label
 _atom_site_symmetry_multiplicity
 _atom_site_fract_x
 _atom_site_fract_y
 _atom_site_fract_z
 _atom_site_occupancy
  Y  Y0  1  0.53978328  0.71021672  0.21021672  1
  Y  Y1  1  0.46021672  0.28978328  0.78978328  1
  Cu  Cu2  1  0.16453967  0.28565558  0.38526508  1
  Cu  Cu3  1  0.83546033  0.71434442  0.61473492  1
  Cu  Cu4  1  0.83546033  0.11473492  0.21434442  1
  Cu  Cu5  1  0.16453967  0.88526508  0.78565558  1
