# generated using pymatgen
data_Co3W
_symmetry_space_group_name_H-M   'P 1'
_cell_length_a   4.09275054
_cell_length_b   5.11371185
_cell_length_c   5.11319839
_cell_angle_alpha   120.00022441
_cell_angle_beta   90.00000000
_cell_angle_gamma   90.00000000
_symmetry_Int_Tables_number   1
_chemical_formula_structural   Co3W
_chemical_formula_sum   'Co6 W2'
_cell_volume   92.67739559
_cell_formula_units_Z   2
loop_
 _symmetry_equiv_pos_site_id
 _symmetry_equiv_pos_as_xyz
  1  'x, y, z'
loop_
 _atom_site_type_symbol
 _atom_site_label
 _atom_site_symmetry_multiplicity
 _atom_site_fract_x
 _atom_site_fract_y
 _atom_site_fract_z
 _atom_site_occupancy
  Co  Co0  1  0.75000000  0.16174759  0.32343621  1
  Co  Co1  1  0.75000000  0.16174036  0.83823265  1
  Co  Co2  1  0.75000000  0.67649876  0.83826454  1
  Co  Co3  1  0.25000000  0.83825241  0.67656379  1
  Co  Co4  1  0.25000000  0.83825964  0.16176735  1
  Co  Co5  1  0.25000000  0.32350124  0.16173546  1
  W  W6  1  0.75000000  0.66666364  0.33336069  1
  W  W7  1  0.25000000  0.33333636  0.66663931  1
