# generated using pymatgen
data_Ti3SnC2
_symmetry_space_group_name_H-M   'P 1'
_cell_length_a   3.15040900
_cell_length_b   3.15014562
_cell_length_c   18.73268994
_cell_angle_alpha   90.00000000
_cell_angle_beta   90.00000000
_cell_angle_gamma   120.00275526
_symmetry_Int_Tables_number   1
_chemical_formula_structural   Ti3SnC2
_chemical_formula_sum   'Ti6 Sn2 C4'
_cell_volume   160.99644571
_cell_formula_units_Z   2
loop_
 _symmetry_equiv_pos_site_id
 _symmetry_equiv_pos_as_xyz
  1  'x, y, z'
loop_
 _atom_site_type_symbol
 _atom_site_label
 _atom_site_symmetry_multiplicity
 _atom_site_fract_x
 _atom_site_fract_y
 _atom_site_fract_z
 _atom_site_occupancy
  Ti  Ti0  1  0.00000000  0.00000000  0.00000000  1
  Ti  Ti1  1  0.33333436  0.66666772  0.12377247  1
  Ti  Ti2  1  0.33333436  0.66666772  0.37622753  1
  Ti  Ti3  1  0.00000000  0.00000000  0.50000000  1
  Ti  Ti4  1  0.66666564  0.33332928  0.62377247  1
  Ti  Ti5  1  0.66666564  0.33332928  0.87622853  1
  Sn  Sn6  1  0.00001829  0.00003658  0.25000000  1
  Sn  Sn7  1  0.99998271  0.99996442  0.75000000  1
  C  C8  1  0.33334891  0.66669881  0.93172609  1
  C  C9  1  0.66665209  0.33330219  0.06827391  1
  C  C10  1  0.66665209  0.33330219  0.43172509  1
  C  C11  1  0.33334891  0.66669881  0.56827391  1
