# generated using pymatgen
data_Mg2Cu
_symmetry_space_group_name_H-M   'P 1'
_cell_length_a   5.22844490
_cell_length_b   5.22844490
_cell_length_c   9.52573516
_cell_angle_alpha   97.93180963
_cell_angle_beta   97.93180961
_cell_angle_gamma   119.81322236
_symmetry_Int_Tables_number   1
_chemical_formula_structural   Mg2Cu
_chemical_formula_sum   'Mg8 Cu4'
_cell_volume   217.21267914
_cell_formula_units_Z   4
loop_
 _symmetry_equiv_pos_site_id
 _symmetry_equiv_pos_as_xyz
  1  'x, y, z'
loop_
 _atom_site_type_symbol
 _atom_site_label
 _atom_site_symmetry_multiplicity
 _atom_site_fract_x
 _atom_site_fract_y
 _atom_site_fract_z
 _atom_site_occupancy
  Mg  Mg0  1  0.45829911  0.70829911  0.41659822  1
  Mg  Mg1  1  0.29170089  0.54170089  0.08340178  1
  Mg  Mg2  1  0.54170089  0.29170089  0.58340178  1
  Mg  Mg3  1  0.70829911  0.45829911  0.91659822  1
  Mg  Mg4  1  0.29075835  0.70924165  0.75000000  1
  Mg  Mg5  1  0.95924165  0.04075835  0.75000000  1
  Mg  Mg6  1  0.70924165  0.29075835  0.25000000  1
  Mg  Mg7  1  0.04075835  0.95924165  0.25000000  1
  Cu  Cu8  1  0.00168164  0.25168164  0.50336328  1
  Cu  Cu9  1  0.74831836  0.99831836  0.99663672  1
  Cu  Cu10  1  0.99831836  0.74831836  0.49663672  1
  Cu  Cu11  1  0.25168164  0.00168164  0.00336328  1
