# generated using pymatgen
data_ZrMnGe
_symmetry_space_group_name_H-M   'P 1'
_cell_length_a   3.79978572
_cell_length_b   6.74313735
_cell_length_c   7.83990318
_cell_angle_alpha   90.00000000
_cell_angle_beta   90.00000000
_cell_angle_gamma   90.00000000
_symmetry_Int_Tables_number   1
_chemical_formula_structural   ZrMnGe
_chemical_formula_sum   'Zr4 Mn4 Ge4'
_cell_volume   200.87773899
_cell_formula_units_Z   4
loop_
 _symmetry_equiv_pos_site_id
 _symmetry_equiv_pos_as_xyz
  1  'x, y, z'
loop_
 _atom_site_type_symbol
 _atom_site_label
 _atom_site_symmetry_multiplicity
 _atom_site_fract_x
 _atom_site_fract_y
 _atom_site_fract_z
 _atom_site_occupancy
  Mn  Mn0  1  0.75000000  0.86627451  0.43821903  1
  Mn  Mn1  1  0.25000000  0.13372549  0.56178097  1
  Mn  Mn2  1  0.75000000  0.36627451  0.06178097  1
  Mn  Mn3  1  0.25000000  0.63372549  0.93821903  1
  Ge  Ge4  1  0.75000000  0.73799161  0.12418083  1
  Ge  Ge5  1  0.25000000  0.76200839  0.62418083  1
  Ge  Ge6  1  0.25000000  0.26200839  0.87581917  1
  Ge  Ge7  1  0.75000000  0.23799161  0.37581917  1
  Zr  Zr8  1  0.25000000  0.53306901  0.32103082  1
  Zr  Zr9  1  0.25000000  0.03306901  0.17896918  1
  Zr  Zr10  1  0.75000000  0.96693099  0.82103082  1
  Zr  Zr11  1  0.75000000  0.46693099  0.67896918  1
