# generated using pymatgen
data_Ta5Sb4
_symmetry_space_group_name_H-M   'P 1'
_cell_length_a   3.58512726
_cell_length_b   7.53220345
_cell_length_c   7.53220345
_cell_angle_alpha   86.75316534
_cell_angle_beta   76.23226060
_cell_angle_gamma   76.23226058
_symmetry_Int_Tables_number   1
_chemical_formula_structural   Ta5Sb4
_chemical_formula_sum   'Ta5 Sb4'
_cell_volume   191.87889503
_cell_formula_units_Z   1
loop_
 _symmetry_equiv_pos_site_id
 _symmetry_equiv_pos_as_xyz
  1  'x, y, z'
loop_
 _atom_site_type_symbol
 _atom_site_label
 _atom_site_symmetry_multiplicity
 _atom_site_fract_x
 _atom_site_fract_y
 _atom_site_fract_z
 _atom_site_occupancy
  Sb  Sb0  1  0.70381318  0.24400875  0.34836490  1
  Sb  Sb1  1  0.05217807  0.65163510  0.24400875  1
  Sb  Sb2  1  0.94782193  0.34836490  0.75599125  1
  Sb  Sb3  1  0.29618682  0.75599125  0.65163510  1
  Ta  Ta4  1  0.62804838  0.05857555  0.68532768  1
  Ta  Ta5  1  0.31337606  0.31467232  0.05857555  1
  Ta  Ta6  1  0.68662394  0.68532768  0.94142445  1
  Ta  Ta7  1  0.37195162  0.94142445  0.31467232  1
  Ta  Ta8  1  0.00000000  0.00000000  0.00000000  1
