# generated using pymatgen
data_CoAsRh
_symmetry_space_group_name_H-M   'P 1'
_cell_length_a   3.79957570
_cell_length_b   5.95988133
_cell_length_c   7.02104314
_cell_angle_alpha   90.00000000
_cell_angle_beta   90.00000000
_cell_angle_gamma   90.00000000
_symmetry_Int_Tables_number   1
_chemical_formula_structural   CoAsRh
_chemical_formula_sum   'Co4 As4 Rh4'
_cell_volume   158.99166427
_cell_formula_units_Z   4
loop_
 _symmetry_equiv_pos_site_id
 _symmetry_equiv_pos_as_xyz
  1  'x, y, z'
loop_
 _atom_site_type_symbol
 _atom_site_label
 _atom_site_symmetry_multiplicity
 _atom_site_fract_x
 _atom_site_fract_y
 _atom_site_fract_z
 _atom_site_occupancy
  Co  Co0  1  0.75000000  0.14304696  0.93762751  1
  Co  Co1  1  0.25000000  0.85695304  0.06237249  1
  Co  Co2  1  0.75000000  0.64304696  0.56237249  1
  Co  Co3  1  0.25000000  0.35695304  0.43762751  1
  As  As4  1  0.75000000  0.26249531  0.62471178  1
  As  As5  1  0.25000000  0.23750469  0.12471178  1
  As  As6  1  0.25000000  0.73750469  0.37528822  1
  As  As7  1  0.75000000  0.76249531  0.87528822  1
  Rh  Rh8  1  0.25000000  0.46552248  0.82953879  1
  Rh  Rh9  1  0.25000000  0.96552248  0.67046121  1
  Rh  Rh10  1  0.75000000  0.03447752  0.32953879  1
  Rh  Rh11  1  0.75000000  0.53447752  0.17046121  1
