# generated using pymatgen
data_ZrNiSb
_symmetry_space_group_name_H-M   'P 1'
_cell_length_a   4.19403772
_cell_length_b   6.77745329
_cell_length_c   7.64672575
_cell_angle_alpha   90.00000000
_cell_angle_beta   90.00000000
_cell_angle_gamma   90.00000000
_symmetry_Int_Tables_number   1
_chemical_formula_structural   ZrNiSb
_chemical_formula_sum   'Zr4 Ni4 Sb4'
_cell_volume   217.35737458
_cell_formula_units_Z   4
loop_
 _symmetry_equiv_pos_site_id
 _symmetry_equiv_pos_as_xyz
  1  'x, y, z'
loop_
 _atom_site_type_symbol
 _atom_site_label
 _atom_site_symmetry_multiplicity
 _atom_site_fract_x
 _atom_site_fract_y
 _atom_site_fract_z
 _atom_site_occupancy
  Ni  Ni0  1  0.25000000  0.67854010  0.08572586  1
  Ni  Ni1  1  0.75000000  0.32145990  0.91427414  1
  Ni  Ni2  1  0.25000000  0.17854010  0.41427414  1
  Ni  Ni3  1  0.75000000  0.82145990  0.58572586  1
  Zr  Zr4  1  0.75000000  0.99825258  0.19492446  1
  Zr  Zr5  1  0.25000000  0.00174742  0.80507554  1
  Zr  Zr6  1  0.75000000  0.49825258  0.30507554  1
  Zr  Zr7  1  0.25000000  0.50174742  0.69492446  1
  Sb  Sb8  1  0.25000000  0.79023490  0.40599170  1
  Sb  Sb9  1  0.75000000  0.20976510  0.59400830  1
  Sb  Sb10  1  0.25000000  0.29023490  0.09400830  1
  Sb  Sb11  1  0.75000000  0.70976510  0.90599170  1
