# generated using pymatgen
data_Co2P
_symmetry_space_group_name_H-M   'P 1'
_cell_length_a   3.50953084
_cell_length_b   5.51907747
_cell_length_c   6.59120449
_cell_angle_alpha   90.00000000
_cell_angle_beta   90.00000000
_cell_angle_gamma   90.00000000
_symmetry_Int_Tables_number   1
_chemical_formula_structural   Co2P
_chemical_formula_sum   'Co8 P4'
_cell_volume   127.66749558
_cell_formula_units_Z   4
loop_
 _symmetry_equiv_pos_site_id
 _symmetry_equiv_pos_as_xyz
  1  'x, y, z'
loop_
 _atom_site_type_symbol
 _atom_site_label
 _atom_site_symmetry_multiplicity
 _atom_site_fract_x
 _atom_site_fract_y
 _atom_site_fract_z
 _atom_site_occupancy
  P  P0  1  0.25000000  0.74874985  0.37864776  1
  P  P1  1  0.75000000  0.25125015  0.62135224  1
  P  P2  1  0.25000000  0.24874985  0.12135224  1
  P  P3  1  0.75000000  0.75125015  0.87864776  1
  Co  Co4  1  0.75000000  0.03210220  0.33248119  1
  Co  Co5  1  0.25000000  0.96789780  0.66751881  1
  Co  Co6  1  0.75000000  0.53210220  0.16751881  1
  Co  Co7  1  0.25000000  0.46789780  0.83248119  1
  Co  Co8  1  0.25000000  0.35556862  0.43483149  1
  Co  Co9  1  0.75000000  0.64443138  0.56516851  1
  Co  Co10  1  0.25000000  0.85556862  0.06516851  1
  Co  Co11  1  0.75000000  0.14443138  0.93483149  1
