# generated using pymatgen
data_Mn4Al11
_symmetry_space_group_name_H-M   'P 1'
_cell_length_a   5.02630547
_cell_length_b   5.04655548
_cell_length_c   8.77362890
_cell_angle_alpha   74.70139579
_cell_angle_beta   90.08295169
_cell_angle_gamma   79.58547979
_symmetry_Int_Tables_number   1
_chemical_formula_structural   Mn4Al11
_chemical_formula_sum   'Mn4 Al11'
_cell_volume   210.84164121
_cell_formula_units_Z   1
loop_
 _symmetry_equiv_pos_site_id
 _symmetry_equiv_pos_as_xyz
  1  'x, y, z'
loop_
 _atom_site_type_symbol
 _atom_site_label
 _atom_site_symmetry_multiplicity
 _atom_site_fract_x
 _atom_site_fract_y
 _atom_site_fract_z
 _atom_site_occupancy
  Al  Al0  1  0.00000000  0.00000000  0.00000000  1
  Al  Al1  1  0.05124911  0.81941343  0.32488543  1
  Al  Al2  1  0.94875089  0.18058657  0.67511457  1
  Al  Al3  1  0.19910283  0.26958404  0.36750339  1
  Al  Al4  1  0.15520699  0.53114535  0.87325301  1
  Al  Al5  1  0.84479301  0.46885465  0.12674699  1
  Al  Al6  1  0.50654314  0.89236968  0.87484583  1
  Al  Al7  1  0.49345686  0.10763032  0.12515417  1
  Al  Al8  1  0.43304740  0.32833897  0.62606801  1
  Al  Al9  1  0.56695260  0.67166103  0.37393199  1
  Al  Al10  1  0.80089717  0.73041596  0.63249661  1
  Mn  Mn11  1  0.71417286  0.14971675  0.40138158  1
  Mn  Mn12  1  0.28582714  0.85028325  0.59861842  1
  Mn  Mn13  1  0.33539284  0.61098600  0.13320389  1
  Mn  Mn14  1  0.66460716  0.38901400  0.86679611  1
