# generated using pymatgen
data_Te2W
_symmetry_space_group_name_H-M   'P 1'
_cell_length_a   3.49794082
_cell_length_b   6.33827436
_cell_length_c   15.43185141
_cell_angle_alpha   90.00000000
_cell_angle_beta   90.00000000
_cell_angle_gamma   90.00000000
_symmetry_Int_Tables_number   1
_chemical_formula_structural   Te2W
_chemical_formula_sum   'Te8 W4'
_cell_volume   342.13816733
_cell_formula_units_Z   4
loop_
 _symmetry_equiv_pos_site_id
 _symmetry_equiv_pos_as_xyz
  1  'x, y, z'
loop_
 _atom_site_type_symbol
 _atom_site_label
 _atom_site_symmetry_multiplicity
 _atom_site_fract_x
 _atom_site_fract_y
 _atom_site_fract_z
 _atom_site_occupancy
  Te  Te0  1  0.50000000  0.79221826  0.91195389  1
  Te  Te1  1  0.00000000  0.20778174  0.41195389  1
  Te  Te2  1  0.50000000  0.69949928  0.37164326  1
  Te  Te3  1  0.00000000  0.30050072  0.87164326  1
  Te  Te4  1  0.00000000  0.85927516  0.64346163  1
  Te  Te5  1  0.50000000  0.14072484  0.14346163  1
  Te  Te6  1  0.00000000  0.64866623  0.10313079  1
  Te  Te7  1  0.50000000  0.35133377  0.60313079  1
  W  W8  1  0.50000000  0.95771523  0.51418198  1
  W  W9  1  0.00000000  0.04228477  0.01418198  1
  W  W10  1  0.50000000  0.39861844  0.00091845  1
  W  W11  1  0.00000000  0.60138156  0.50091845  1
