# generated using pymatgen
data_Fe3Se4
_symmetry_space_group_name_H-M   'P 1'
_cell_length_a   3.45171317
_cell_length_b   6.08209073
_cell_length_c   6.34339928
_cell_angle_alpha   115.48436881
_cell_angle_beta   105.78755571
_cell_angle_gamma   90.00000000
_symmetry_Int_Tables_number   1
_chemical_formula_structural   Fe3Se4
_chemical_formula_sum   'Fe3 Se4'
_cell_volume   114.62374921
_cell_formula_units_Z   1
loop_
 _symmetry_equiv_pos_site_id
 _symmetry_equiv_pos_as_xyz
  1  'x, y, z'
loop_
 _atom_site_type_symbol
 _atom_site_label
 _atom_site_symmetry_multiplicity
 _atom_site_fract_x
 _atom_site_fract_y
 _atom_site_fract_z
 _atom_site_occupancy
  Fe  Fe0  1  0.00000000  0.00000000  0.00000000  1
  Fe  Fe1  1  0.73855477  0.69026307  0.47710954  1
  Fe  Fe2  1  0.26144523  0.30973693  0.52289046  1
  Se  Se3  1  0.63494464  0.97754678  0.26988928  1
  Se  Se4  1  0.36505536  0.02245322  0.73011072  1
  Se  Se5  1  0.89513834  0.56019092  0.79027668  1
  Se  Se6  1  0.10486166  0.43980908  0.20972332  1
