# generated using pymatgen
data_CuSe2
_symmetry_space_group_name_H-M   'P 1'
_cell_length_a   3.81095748
_cell_length_b   5.04209153
_cell_length_c   6.21856332
_cell_angle_alpha   90.00000000
_cell_angle_beta   90.00000000
_cell_angle_gamma   90.00000000
_symmetry_Int_Tables_number   1
_chemical_formula_structural   CuSe2
_chemical_formula_sum   'Cu2 Se4'
_cell_volume   119.49091571
_cell_formula_units_Z   2
loop_
 _symmetry_equiv_pos_site_id
 _symmetry_equiv_pos_as_xyz
  1  'x, y, z'
loop_
 _atom_site_type_symbol
 _atom_site_label
 _atom_site_symmetry_multiplicity
 _atom_site_fract_x
 _atom_site_fract_y
 _atom_site_fract_z
 _atom_site_occupancy
  Cu  Cu0  1  0.00000000  0.00000000  0.00000000  1
  Cu  Cu1  1  0.50000000  0.50000000  0.50000000  1
  Se  Se2  1  0.00000000  0.18812289  0.38530818  1
  Se  Se3  1  0.00000000  0.81187711  0.61469182  1
  Se  Se4  1  0.50000000  0.68812289  0.11469182  1
  Se  Se5  1  0.50000000  0.31187711  0.88530818  1
