# generated using pymatgen
data_Y2Co3Si5
_symmetry_space_group_name_H-M   'P 1'
_cell_length_a   5.53974656
_cell_length_b   7.88136154
_cell_length_c   7.88136157
_cell_angle_alpha   74.36973195
_cell_angle_beta   69.42421530
_cell_angle_gamma   69.42421548
_symmetry_Int_Tables_number   1
_chemical_formula_structural   Y2Co3Si5
_chemical_formula_sum   'Y4 Co6 Si10'
_cell_volume   297.39533782
_cell_formula_units_Z   2
loop_
 _symmetry_equiv_pos_site_id
 _symmetry_equiv_pos_as_xyz
  1  'x, y, z'
loop_
 _atom_site_type_symbol
 _atom_site_label
 _atom_site_symmetry_multiplicity
 _atom_site_fract_x
 _atom_site_fract_y
 _atom_site_fract_z
 _atom_site_occupancy
  Y  Y0  1  0.36617559  0.40007162  0.86757719  1
  Y  Y1  1  0.63382441  0.59992838  0.13242281  1
  Y  Y2  1  0.13382441  0.13242281  0.59992838  1
  Y  Y3  1  0.86617559  0.86757719  0.40007162  1
  Co  Co4  1  0.75000000  -0.00000000  0.00000000  1
  Co  Co5  1  0.86213678  0.52980706  0.74592039  1
  Co  Co6  1  0.36213678  0.74592039  0.52980706  1
  Co  Co7  1  0.63786322  0.25407961  0.47019394  1
  Co  Co8  1  0.25000000  -0.00000000  0.00000000  1
  Co  Co9  1  0.13786322  0.47019394  0.25407961  1
  Si  Si10  1  0.10068955  0.74115998  0.05745991  1
  Si  Si11  1  0.89931045  0.25884002  0.94254009  1
  Si  Si12  1  0.39931045  0.94254009  0.25884002  1
  Si  Si13  1  0.60068955  0.05745991  0.74115998  1
  Si  Si14  1  0.02355475  0.22644525  0.22644525  1
  Si  Si15  1  0.47644525  0.77355475  0.77355475  1
  Si  Si16  1  0.97644525  0.77355475  0.77355475  1
  Si  Si17  1  0.75000000  0.50000000  0.50000000  1
  Si  Si18  1  0.25000000  0.50000000  0.50000000  1
  Si  Si19  1  0.52355475  0.22644525  0.22644525  1
