# generated using pymatgen
data_FeP4
_symmetry_space_group_name_H-M   'P 1'
_cell_length_a   4.62006852
_cell_length_b   7.01798457
_cell_length_c   13.68801501
_cell_angle_alpha   90.00000000
_cell_angle_beta   90.00000000
_cell_angle_gamma   101.49098577
_symmetry_Int_Tables_number   1
_chemical_formula_structural   FeP4
_chemical_formula_sum   'Fe6 P24'
_cell_volume   434.91851983
_cell_formula_units_Z   6
loop_
 _symmetry_equiv_pos_site_id
 _symmetry_equiv_pos_as_xyz
  1  'x, y, z'
loop_
 _atom_site_type_symbol
 _atom_site_label
 _atom_site_symmetry_multiplicity
 _atom_site_fract_x
 _atom_site_fract_y
 _atom_site_fract_z
 _atom_site_occupancy
  P  P0  1  0.50821025  0.03155225  0.78043706  1
  P  P1  1  0.49178975  0.46844775  0.28043706  1
  P  P2  1  0.49178975  0.96844775  0.21956294  1
  P  P3  1  0.50821025  0.53155225  0.71956294  1
  P  P4  1  0.07155110  0.36505865  0.77485248  1
  P  P5  1  0.92844890  0.13494135  0.27485248  1
  P  P6  1  0.80480975  0.24942037  0.05412078  1
  P  P7  1  0.19519025  0.25057963  0.55412078  1
  P  P8  1  0.19519025  0.75057963  0.94587922  1
  P  P9  1  0.80480975  0.74942037  0.44587922  1
  P  P10  1  0.65613380  0.85323723  0.89303875  1
  P  P11  1  0.34386620  0.64676277  0.39303875  1
  P  P12  1  0.34386620  0.14676277  0.10696125  1
  P  P13  1  0.65613380  0.35323723  0.60696125  1
  P  P14  1  0.73656842  0.80506410  0.11271214  1
  P  P15  1  0.26343158  0.69493590  0.61271214  1
  P  P16  1  0.26343158  0.19493590  0.88728786  1
  P  P17  1  0.73656842  0.30506410  0.38728786  1
  P  P18  1  0.63214868  0.92979308  0.55598139  1
  P  P19  1  0.36785132  0.57020692  0.05598139  1
  P  P20  1  0.36785132  0.07020692  0.44401861  1
  P  P21  1  0.63214868  0.42979308  0.94401861  1
  P  P22  1  0.07155110  0.86505865  0.72514752  1
  P  P23  1  0.92844890  0.63494135  0.22514752  1
  Fe  Fe24  1  0.85913994  0.11858986  0.67004415  1
  Fe  Fe25  1  0.14086006  0.38141014  0.17004415  1
  Fe  Fe26  1  0.14086006  0.88141014  0.32995585  1
  Fe  Fe27  1  0.85913994  0.61858986  0.82995585  1
  Fe  Fe28  1  0.00000000  0.50000000  0.50000000  1
  Fe  Fe29  1  0.00000000  0.00000000  0.00000000  1
