# generated using pymatgen
data_Ba3WO6
_symmetry_space_group_name_H-M   'P 1'
_cell_length_a   6.35771957
_cell_length_b   6.35771957
_cell_length_c   6.35771957
_cell_angle_alpha   60.00000003
_cell_angle_beta   60.00000005
_cell_angle_gamma   60.00000004
_symmetry_Int_Tables_number   1
_chemical_formula_structural   Ba3WO6
_chemical_formula_sum   'Ba3 W1 O6'
_cell_volume   181.71430019
_cell_formula_units_Z   1
loop_
 _symmetry_equiv_pos_site_id
 _symmetry_equiv_pos_as_xyz
  1  'x, y, z'
loop_
 _atom_site_type_symbol
 _atom_site_label
 _atom_site_symmetry_multiplicity
 _atom_site_fract_x
 _atom_site_fract_y
 _atom_site_fract_z
 _atom_site_occupancy
  O  O0  1  0.21755590  0.78244464  0.78244475  1
  O  O1  1  0.21755590  0.78244464  0.21755482  1
  O  O2  1  0.78244507  0.21755423  0.78244537  1
  O  O3  1  0.21755560  0.21755423  0.78244435  1
  O  O4  1  0.78244507  0.21755423  0.21755544  1
  O  O5  1  0.78244537  0.78244464  0.21755426  1
  Ba  Ba6  1  0.25000054  0.25000020  0.25000005  1
  Ba  Ba7  1  0.49999925  0.50000040  0.49999944  1
  Ba  Ba8  1  0.74999979  0.75000060  0.74999949  1
  W  W9  1  0.00000000  0.00000000  0.00000000  1
