# generated using pymatgen
data_Al8Mo3
_symmetry_space_group_name_H-M   'P 1'
_cell_length_a   3.65423067
_cell_length_b   4.96465484
_cell_length_c   10.08558974
_cell_angle_alpha   99.98238813
_cell_angle_beta   90.00000000
_cell_angle_gamma   111.59384345
_symmetry_Int_Tables_number   1
_chemical_formula_structural   Al8Mo3
_chemical_formula_sum   'Al8 Mo3'
_cell_volume   167.14826947
_cell_formula_units_Z   1
loop_
 _symmetry_equiv_pos_site_id
 _symmetry_equiv_pos_as_xyz
  1  'x, y, z'
loop_
 _atom_site_type_symbol
 _atom_site_label
 _atom_site_symmetry_multiplicity
 _atom_site_fract_x
 _atom_site_fract_y
 _atom_site_fract_z
 _atom_site_occupancy
  Al  Al0  1  0.27231755  0.54463510  0.90981956  1
  Al  Al1  1  0.72768245  0.45536490  0.09018044  1
  Al  Al2  1  0.46016313  0.92032625  0.17914711  1
  Al  Al3  1  0.53983687  0.07967375  0.82085289  1
  Al  Al4  1  0.18653989  0.37307978  0.27788136  1
  Al  Al5  1  0.81346011  0.62692022  0.72211864  1
  Al  Al6  1  0.36819530  0.73639060  0.54170304  1
  Al  Al7  1  0.63180470  0.26360940  0.45829696  1
  Mo  Mo8  1  0.00000000  0.00000000  0.00000000  1
  Mo  Mo9  1  0.09458902  0.18917805  0.65946099  1
  Mo  Mo10  1  0.90541098  0.81082195  0.34053901  1
