# generated using pymatgen
data_In2O3
_symmetry_space_group_name_H-M   'P 1'
_cell_length_a   8.91968116
_cell_length_b   8.91968185
_cell_length_c   8.91968186
_cell_angle_alpha   109.47122068
_cell_angle_beta   109.47122225
_cell_angle_gamma   109.47122078
_symmetry_Int_Tables_number   1
_chemical_formula_structural   In2O3
_chemical_formula_sum   'In16 O24'
_cell_volume   546.29365798
_cell_formula_units_Z   8
loop_
 _symmetry_equiv_pos_site_id
 _symmetry_equiv_pos_as_xyz
  1  'x, y, z'
loop_
 _atom_site_type_symbol
 _atom_site_label
 _atom_site_symmetry_multiplicity
 _atom_site_fract_x
 _atom_site_fract_y
 _atom_site_fract_z
 _atom_site_occupancy
  In  In0  1  0.78344433  0.03344433  0.75000000  1
  In  In1  1  0.21655567  0.96655567  0.25000000  1
  In  In2  1  0.71655567  0.46655567  0.25000000  1
  In  In3  1  0.50000000  0.00000000  0.00000000  1
  In  In4  1  0.46655567  0.25000000  0.71655567  1
  In  In5  1  0.75000000  0.78344433  0.03344433  1
  In  In6  1  0.75000000  0.28344433  0.53344433  1
  In  In7  1  0.25000000  0.21655567  0.96655567  1
  In  In8  1  0.53344433  0.75000000  0.28344433  1
  In  In9  1  0.00000000  0.00000000  0.50000000  1
  In  In10  1  0.03344433  0.75000000  0.78344433  1
  In  In11  1  0.96655567  0.25000000  0.21655567  1
  In  In12  1  0.25000000  0.71655567  0.46655567  1
  In  In13  1  0.28344433  0.53344433  0.75000000  1
  In  In14  1  0.00000000  0.50000000  0.00000000  1
  In  In15  1  0.50000000  0.50000000  0.50000000  1
  O  O16  1  0.54414207  0.53616051  0.77198744  1
  O  O17  1  0.72801256  0.26417307  0.77215462  1
  O  O18  1  0.00798155  0.04414207  0.27215462  1
  O  O19  1  0.27215462  0.00798155  0.04414207  1
  O  O20  1  0.26417307  0.77215462  0.72801256  1
  O  O21  1  0.22801256  0.45585793  0.46383949  1
  O  O22  1  0.03616051  0.49201845  0.76417307  1
  O  O23  1  0.50798155  0.23582693  0.96383949  1
  O  O24  1  0.99201845  0.95585793  0.72784538  1
  O  O25  1  0.49201845  0.76417307  0.03616051  1
  O  O26  1  0.23582693  0.96383949  0.50798155  1
  O  O27  1  0.53616051  0.77198744  0.54414207  1
  O  O28  1  0.95585793  0.72784538  0.99201845  1
  O  O29  1  0.04414207  0.27215462  0.00798155  1
  O  O30  1  0.76417307  0.03616051  0.49201845  1
  O  O31  1  0.27198744  0.73582693  0.22784538  1
  O  O32  1  0.77198744  0.54414207  0.53616051  1
  O  O33  1  0.77215462  0.72801256  0.26417307  1
  O  O34  1  0.45585793  0.46383949  0.22801256  1
  O  O35  1  0.96383949  0.50798155  0.23582693  1
  O  O36  1  0.46383949  0.22801256  0.45585793  1
  O  O37  1  0.73582693  0.22784538  0.27198744  1
  O  O38  1  0.22784538  0.27198744  0.73582693  1
  O  O39  1  0.72784538  0.99201845  0.95585793  1
