# generated using pymatgen
data_GeS
_symmetry_space_group_name_H-M   'P 1'
_cell_length_a   3.66588127
_cell_length_b   4.45453349
_cell_length_c   10.76962178
_cell_angle_alpha   90.00000000
_cell_angle_beta   90.00000000
_cell_angle_gamma   90.00000000
_symmetry_Int_Tables_number   1
_chemical_formula_structural   GeS
_chemical_formula_sum   'Ge4 S4'
_cell_volume   175.86567161
_cell_formula_units_Z   4
loop_
 _symmetry_equiv_pos_site_id
 _symmetry_equiv_pos_as_xyz
  1  'x, y, z'
loop_
 _atom_site_type_symbol
 _atom_site_label
 _atom_site_symmetry_multiplicity
 _atom_site_fract_x
 _atom_site_fract_y
 _atom_site_fract_z
 _atom_site_occupancy
  S  S0  1  0.25000000  0.50214939  0.65275488  1
  S  S1  1  0.75000000  0.49785061  0.34724512  1
  S  S2  1  0.75000000  0.00214939  0.84724512  1
  S  S3  1  0.25000000  0.99785061  0.15275488  1
  Ge  Ge4  1  0.25000000  0.36467154  0.87429324  1
  Ge  Ge5  1  0.75000000  0.63532846  0.12570676  1
  Ge  Ge6  1  0.75000000  0.86467154  0.62570676  1
  Ge  Ge7  1  0.25000000  0.13532846  0.37429324  1
