# generated using pymatgen
data_Ag2HgI4
_symmetry_space_group_name_H-M   'P 1'
_cell_length_a   6.53609322
_cell_length_b   6.53609321
_cell_length_c   8.04211083
_cell_angle_alpha   113.97680443
_cell_angle_beta   113.97680443
_cell_angle_gamma   90.00000000
_symmetry_Int_Tables_number   1
_chemical_formula_structural   Ag2HgI4
_chemical_formula_sum   'Ag2 Hg1 I4'
_cell_volume   281.16229795
_cell_formula_units_Z   1
loop_
 _symmetry_equiv_pos_site_id
 _symmetry_equiv_pos_as_xyz
  1  'x, y, z'
loop_
 _atom_site_type_symbol
 _atom_site_label
 _atom_site_symmetry_multiplicity
 _atom_site_fract_x
 _atom_site_fract_y
 _atom_site_fract_z
 _atom_site_occupancy
  Ag  Ag0  1  0.25000000  0.75000000  0.50000000  1
  Ag  Ag1  1  0.50000000  0.50000000  0.00000000  1
  I  I2  1  0.87001695  0.88959909  0.25997638  1
  I  I3  1  0.11040091  0.61004057  0.74002362  1
  I  I4  1  0.38995943  0.37037729  0.25997638  1
  I  I5  1  0.62962271  0.12998305  0.74002362  1
  Hg  Hg6  1  0.00000000  0.00000000  0.00000000  1
