# generated using pymatgen
data_Zr2Ni2Sn
_symmetry_space_group_name_H-M   'P 1'
_cell_length_a   3.43447513
_cell_length_b   7.13211409
_cell_length_c   7.13211409
_cell_angle_alpha   90.00000000
_cell_angle_beta   90.00000000
_cell_angle_gamma   90.00000000
_symmetry_Int_Tables_number   1
_chemical_formula_structural   Zr2Ni2Sn
_chemical_formula_sum   'Zr4 Ni4 Sn2'
_cell_volume   174.70162294
_cell_formula_units_Z   2
loop_
 _symmetry_equiv_pos_site_id
 _symmetry_equiv_pos_as_xyz
  1  'x, y, z'
loop_
 _atom_site_type_symbol
 _atom_site_label
 _atom_site_symmetry_multiplicity
 _atom_site_fract_x
 _atom_site_fract_y
 _atom_site_fract_z
 _atom_site_occupancy
  Ni  Ni0  1  0.00000000  0.62469212  0.12469212  1
  Ni  Ni1  1  0.00000000  0.87530788  0.62469212  1
  Ni  Ni2  1  0.00000000  0.37530788  0.87530788  1
  Ni  Ni3  1  0.00000000  0.12469212  0.37530788  1
  Zr  Zr4  1  0.50000000  0.66939333  0.83060667  1
  Zr  Zr5  1  0.50000000  0.83060667  0.33060667  1
  Zr  Zr6  1  0.50000000  0.16939333  0.66939333  1
  Zr  Zr7  1  0.50000000  0.33060667  0.16939333  1
  Sn  Sn8  1  0.00000000  0.50000000  0.50000000  1
  Sn  Sn9  1  0.00000000  0.00000000  0.00000000  1
