# generated using pymatgen
data_Zr2CoP
_symmetry_space_group_name_H-M   'P 1'
_cell_length_a   3.66048961
_cell_length_b   5.27249209
_cell_length_c   7.46636634
_cell_angle_alpha   111.11739919
_cell_angle_beta   90.00000000
_cell_angle_gamma   90.00000000
_symmetry_Int_Tables_number   1
_chemical_formula_structural   Zr2CoP
_chemical_formula_sum   'Zr4 Co2 P2'
_cell_volume   134.42297797
_cell_formula_units_Z   2
loop_
 _symmetry_equiv_pos_site_id
 _symmetry_equiv_pos_as_xyz
  1  'x, y, z'
loop_
 _atom_site_type_symbol
 _atom_site_label
 _atom_site_symmetry_multiplicity
 _atom_site_fract_x
 _atom_site_fract_y
 _atom_site_fract_z
 _atom_site_occupancy
  P  P0  1  0.25000000  0.35307141  0.21129863  1
  P  P1  1  0.75000000  0.64692859  0.78870137  1
  Co  Co2  1  0.25000000  0.35694591  0.71058922  1
  Co  Co3  1  0.75000000  0.64305409  0.28941078  1
  Zr  Zr4  1  0.25000000  0.78961793  0.56421574  1
  Zr  Zr5  1  0.75000000  0.21038207  0.43578426  1
  Zr  Zr6  1  0.25000000  0.78823535  0.08055736  1
  Zr  Zr7  1  0.75000000  0.21176465  0.91944264  1
