# generated using pymatgen
data_Ni3Sn4
_symmetry_space_group_name_H-M   'P 1'
_cell_length_a   4.09392127
_cell_length_b   5.27045394
_cell_length_c   6.47249492
_cell_angle_alpha   104.39494922
_cell_angle_beta   108.43660995
_cell_angle_gamma   89.99999998
_symmetry_Int_Tables_number   1
_chemical_formula_structural   Ni3Sn4
_chemical_formula_sum   'Ni3 Sn4'
_cell_volume   127.85786882
_cell_formula_units_Z   1
loop_
 _symmetry_equiv_pos_site_id
 _symmetry_equiv_pos_as_xyz
  1  'x, y, z'
loop_
 _atom_site_type_symbol
 _atom_site_label
 _atom_site_symmetry_multiplicity
 _atom_site_fract_x
 _atom_site_fract_y
 _atom_site_fract_z
 _atom_site_occupancy
  Ni  Ni0  1  0.00000000  0.00000000  0.00000000  1
  Ni  Ni1  1  0.78413572  0.66350010  0.56827144  1
  Ni  Ni2  1  0.21586428  0.33649990  0.43172856  1
  Sn  Sn3  1  0.57172870  0.31255743  0.14345739  1
  Sn  Sn4  1  0.42827130  0.68744257  0.85654261  1
  Sn  Sn5  1  0.82817179  0.18778355  0.65634358  1
  Sn  Sn6  1  0.17182821  0.81221645  0.34365642  1
