# generated using pymatgen
data_Si3Rh5
_symmetry_space_group_name_H-M   'P 1'
_cell_length_a   3.91139314
_cell_length_b   5.39539827
_cell_length_c   10.30614591
_cell_angle_alpha   90.00000000
_cell_angle_beta   90.00000000
_cell_angle_gamma   90.00000000
_symmetry_Int_Tables_number   1
_chemical_formula_structural   Si3Rh5
_chemical_formula_sum   'Si6 Rh10'
_cell_volume   217.49599530
_cell_formula_units_Z   2
loop_
 _symmetry_equiv_pos_site_id
 _symmetry_equiv_pos_as_xyz
  1  'x, y, z'
loop_
 _atom_site_type_symbol
 _atom_site_label
 _atom_site_symmetry_multiplicity
 _atom_site_fract_x
 _atom_site_fract_y
 _atom_site_fract_z
 _atom_site_occupancy
  Si  Si0  1  0.50000000  0.09620976  0.65439111  1
  Si  Si1  1  0.50000000  0.90379024  0.34560889  1
  Si  Si2  1  0.50000000  0.59620976  0.84560889  1
  Si  Si3  1  0.50000000  0.40379024  0.15439111  1
  Si  Si4  1  0.00000000  0.50000000  0.50000000  1
  Si  Si5  1  0.00000000  0.00000000  0.00000000  1
  Rh  Rh6  1  0.50000000  0.33311758  0.39262807  1
  Rh  Rh7  1  0.50000000  0.66688242  0.60737193  1
  Rh  Rh8  1  0.50000000  0.83311758  0.10737193  1
  Rh  Rh9  1  0.50000000  0.16688242  0.89262807  1
  Rh  Rh10  1  0.00000000  0.33942016  0.71276713  1
  Rh  Rh11  1  0.00000000  0.66057984  0.28723287  1
  Rh  Rh12  1  0.00000000  0.83942016  0.78723287  1
  Rh  Rh13  1  0.00000000  0.16057984  0.21276713  1
  Rh  Rh14  1  0.00000000  0.50000000  0.00000000  1
  Rh  Rh15  1  0.00000000  0.00000000  0.50000000  1
