# generated using pymatgen
data_Sb2O3
_symmetry_space_group_name_H-M   'P 1'
_cell_length_a   5.19291536
_cell_length_b   5.51549052
_cell_length_c   12.62266246
_cell_angle_alpha   90.00000000
_cell_angle_beta   90.00000000
_cell_angle_gamma   90.00000000
_symmetry_Int_Tables_number   1
_chemical_formula_structural   Sb2O3
_chemical_formula_sum   'Sb8 O12'
_cell_volume   361.53167683
_cell_formula_units_Z   4
loop_
 _symmetry_equiv_pos_site_id
 _symmetry_equiv_pos_as_xyz
  1  'x, y, z'
loop_
 _atom_site_type_symbol
 _atom_site_label
 _atom_site_symmetry_multiplicity
 _atom_site_fract_x
 _atom_site_fract_y
 _atom_site_fract_z
 _atom_site_occupancy
  O  O0  1  0.75000000  0.98445355  0.75000000  1
  O  O1  1  0.25000000  0.51554645  0.25000000  1
  O  O2  1  0.25000000  0.01554645  0.25000000  1
  O  O3  1  0.75000000  0.48445355  0.75000000  1
  O  O4  1  0.84999727  0.14626545  0.94199014  1
  O  O5  1  0.34999727  0.35373455  0.05800986  1
  O  O6  1  0.65000273  0.14626545  0.55800986  1
  O  O7  1  0.15000273  0.35373455  0.44199014  1
  O  O8  1  0.15000273  0.85373455  0.05800986  1
  O  O9  1  0.65000273  0.64626545  0.94199014  1
  O  O10  1  0.34999727  0.85373455  0.44199014  1
  O  O11  1  0.84999727  0.64626545  0.55800986  1
  Sb  Sb12  1  0.94675417  0.82316339  0.87293658  1
  Sb  Sb13  1  0.44675417  0.67683661  0.12706342  1
  Sb  Sb14  1  0.55324583  0.82316339  0.62706342  1
  Sb  Sb15  1  0.05324583  0.67683661  0.37293658  1
  Sb  Sb16  1  0.05324583  0.17683661  0.12706342  1
  Sb  Sb17  1  0.55324583  0.32316339  0.87293658  1
  Sb  Sb18  1  0.44675417  0.17683661  0.37293658  1
  Sb  Sb19  1  0.94675417  0.32316339  0.62706342  1
