# generated using pymatgen
data_Cr3C2
_symmetry_space_group_name_H-M   'P 1'
_cell_length_a   2.78836894
_cell_length_b   5.48244966
_cell_length_c   11.51010020
_cell_angle_alpha   90.00000000
_cell_angle_beta   90.00000000
_cell_angle_gamma   90.00000000
_symmetry_Int_Tables_number   1
_chemical_formula_structural   Cr3C2
_chemical_formula_sum   'Cr12 C8'
_cell_volume   175.95596468
_cell_formula_units_Z   4
loop_
 _symmetry_equiv_pos_site_id
 _symmetry_equiv_pos_as_xyz
  1  'x, y, z'
loop_
 _atom_site_type_symbol
 _atom_site_label
 _atom_site_symmetry_multiplicity
 _atom_site_fract_x
 _atom_site_fract_y
 _atom_site_fract_z
 _atom_site_occupancy
  C  C0  1  0.75000000  0.60133331  0.70230558  1
  C  C1  1  0.25000000  0.39866669  0.29769442  1
  C  C2  1  0.75000000  0.10133331  0.79769442  1
  C  C3  1  0.25000000  0.89866669  0.20230558  1
  C  C4  1  0.25000000  0.76290866  0.95096609  1
  C  C5  1  0.75000000  0.23709134  0.04903391  1
  C  C6  1  0.25000000  0.26290866  0.54903391  1
  C  C7  1  0.75000000  0.73709134  0.45096609  1
  Cr  Cr8  1  0.75000000  0.01669285  0.59683411  1
  Cr  Cr9  1  0.25000000  0.98330715  0.40316589  1
  Cr  Cr10  1  0.75000000  0.51669285  0.90316589  1
  Cr  Cr11  1  0.25000000  0.48330715  0.09683411  1
  Cr  Cr12  1  0.25000000  0.81644058  0.77364289  1
  Cr  Cr13  1  0.75000000  0.18355942  0.22635711  1
  Cr  Cr14  1  0.25000000  0.31644058  0.72635711  1
  Cr  Cr15  1  0.75000000  0.68355942  0.27364289  1
  Cr  Cr16  1  0.25000000  0.13372808  0.93177415  1
  Cr  Cr17  1  0.75000000  0.86627192  0.06822585  1
  Cr  Cr18  1  0.25000000  0.63372808  0.56822585  1
  Cr  Cr19  1  0.75000000  0.36627192  0.43177415  1
