# generated using pymatgen
data_YSnPt
_symmetry_space_group_name_H-M   'P 1'
_cell_length_a   4.57567634
_cell_length_b   7.22566769
_cell_length_c   8.06468825
_cell_angle_alpha   90.00000000
_cell_angle_beta   90.00000000
_cell_angle_gamma   90.00000000
_symmetry_Int_Tables_number   1
_chemical_formula_structural   YSnPt
_chemical_formula_sum   'Y4 Sn4 Pt4'
_cell_volume   266.63727693
_cell_formula_units_Z   4
loop_
 _symmetry_equiv_pos_site_id
 _symmetry_equiv_pos_as_xyz
  1  'x, y, z'
loop_
 _atom_site_type_symbol
 _atom_site_label
 _atom_site_symmetry_multiplicity
 _atom_site_fract_x
 _atom_site_fract_y
 _atom_site_fract_z
 _atom_site_occupancy
  Y  Y0  1  0.75000000  0.99042656  0.30186865  1
  Y  Y1  1  0.25000000  0.00957344  0.69813135  1
  Y  Y2  1  0.75000000  0.49042656  0.19813135  1
  Y  Y3  1  0.25000000  0.50957344  0.80186865  1
  Sn  Sn4  1  0.75000000  0.31849358  0.58484969  1
  Sn  Sn5  1  0.25000000  0.18150642  0.08484969  1
  Sn  Sn6  1  0.25000000  0.68150642  0.41515031  1
  Sn  Sn7  1  0.75000000  0.81849358  0.91515031  1
  Pt  Pt8  1  0.25000000  0.78503134  0.08983768  1
  Pt  Pt9  1  0.25000000  0.28503134  0.41016232  1
  Pt  Pt10  1  0.75000000  0.71496866  0.58983768  1
  Pt  Pt11  1  0.75000000  0.21496866  0.91016232  1
