# generated using pymatgen
data_Zr2NiP
_symmetry_space_group_name_H-M   'P 1'
_cell_length_a   3.64904147
_cell_length_b   5.26774908
_cell_length_c   7.51718501
_cell_angle_alpha   110.81949425
_cell_angle_beta   90.00000000
_cell_angle_gamma   90.00000000
_symmetry_Int_Tables_number   1
_chemical_formula_structural   Zr2NiP
_chemical_formula_sum   'Zr4 Ni2 P2'
_cell_volume   135.06212918
_cell_formula_units_Z   2
loop_
 _symmetry_equiv_pos_site_id
 _symmetry_equiv_pos_as_xyz
  1  'x, y, z'
loop_
 _atom_site_type_symbol
 _atom_site_label
 _atom_site_symmetry_multiplicity
 _atom_site_fract_x
 _atom_site_fract_y
 _atom_site_fract_z
 _atom_site_occupancy
  Zr  Zr0  1  0.75000000  0.20779157  0.92545000  1
  Zr  Zr1  1  0.25000000  0.79220843  0.07455000  1
  Zr  Zr2  1  0.75000000  0.20912074  0.42975331  1
  Zr  Zr3  1  0.25000000  0.79087926  0.57024669  1
  Ni  Ni4  1  0.75000000  0.64281016  0.28977576  1
  Ni  Ni5  1  0.25000000  0.35718984  0.71022424  1
  P  P6  1  0.75000000  0.64518690  0.78787605  1
  P  P7  1  0.25000000  0.35481310  0.21212395  1
