# generated using pymatgen
data_Mg17Al12
_symmetry_space_group_name_H-M   'P 1'
_cell_length_a   9.12454086
_cell_length_b   9.12454086
_cell_length_c   9.12454086
_cell_angle_alpha   109.47122064
_cell_angle_beta   109.47122064
_cell_angle_gamma   109.47122063
_symmetry_Int_Tables_number   1
_chemical_formula_structural   Mg17Al12
_chemical_formula_sum   'Mg17 Al12'
_cell_volume   584.80512472
_cell_formula_units_Z   1
loop_
 _symmetry_equiv_pos_site_id
 _symmetry_equiv_pos_as_xyz
  1  'x, y, z'
loop_
 _atom_site_type_symbol
 _atom_site_label
 _atom_site_symmetry_multiplicity
 _atom_site_fract_x
 _atom_site_fract_y
 _atom_site_fract_z
 _atom_site_occupancy
  Mg  Mg0  1  0.00000000  0.00000000  0.00000000  1
  Mg  Mg1  1  0.65529755  0.65529755  0.65529755  1
  Mg  Mg2  1  0.34470245  0.00000000  0.00000000  1
  Mg  Mg3  1  0.00000000  0.34470245  0.00000000  1
  Mg  Mg4  1  0.00000000  0.00000000  0.34470245  1
  Mg  Mg5  1  0.39754061  0.39754061  0.71322363  1
  Mg  Mg6  1  0.60245939  0.31568303  0.00000000  1
  Mg  Mg7  1  0.31568303  0.60245939  0.00000000  1
  Mg  Mg8  1  0.00000000  0.31568303  0.60245939  1
  Mg  Mg9  1  0.28677637  0.68431697  0.68431697  1
  Mg  Mg10  1  0.68431697  0.28677637  0.68431697  1
  Mg  Mg11  1  0.31568303  0.00000000  0.60245939  1
  Mg  Mg12  1  0.60245939  0.00000000  0.31568303  1
  Mg  Mg13  1  0.00000000  0.60245939  0.31568303  1
  Mg  Mg14  1  0.71322363  0.39754061  0.39754061  1
  Mg  Mg15  1  0.39754061  0.71322363  0.39754061  1
  Mg  Mg16  1  0.68431697  0.68431697  0.28677637  1
  Al  Al17  1  0.36612479  0.36612479  0.18079631  1
  Al  Al18  1  0.63387521  0.81467152  0.00000000  1
  Al  Al19  1  0.81467152  0.63387521  0.00000000  1
  Al  Al20  1  0.00000000  0.81467152  0.63387521  1
  Al  Al21  1  0.81920369  0.18532848  0.18532848  1
  Al  Al22  1  0.18532848  0.81920369  0.18532848  1
  Al  Al23  1  0.81467152  0.00000000  0.63387521  1
  Al  Al24  1  0.63387521  0.00000000  0.81467152  1
  Al  Al25  1  0.00000000  0.63387521  0.81467152  1
  Al  Al26  1  0.18079631  0.36612479  0.36612479  1
  Al  Al27  1  0.36612479  0.18079631  0.36612479  1
  Al  Al28  1  0.18532848  0.18532848  0.81920369  1
