# generated using pymatgen
data_ScSiNi
_symmetry_space_group_name_H-M   'P 1'
_cell_length_a   4.01019247
_cell_length_b   6.43904197
_cell_length_c   6.95292076
_cell_angle_alpha   90.00000000
_cell_angle_beta   90.00000000
_cell_angle_gamma   90.00000000
_symmetry_Int_Tables_number   1
_chemical_formula_structural   ScSiNi
_chemical_formula_sum   'Sc4 Si4 Ni4'
_cell_volume   179.53691275
_cell_formula_units_Z   4
loop_
 _symmetry_equiv_pos_site_id
 _symmetry_equiv_pos_as_xyz
  1  'x, y, z'
loop_
 _atom_site_type_symbol
 _atom_site_label
 _atom_site_symmetry_multiplicity
 _atom_site_fract_x
 _atom_site_fract_y
 _atom_site_fract_z
 _atom_site_occupancy
  Si  Si0  1  0.25000000  0.29984170  0.90420025  1
  Si  Si1  1  0.75000000  0.70015830  0.09579975  1
  Si  Si2  1  0.25000000  0.79984170  0.59579975  1
  Si  Si3  1  0.75000000  0.20015830  0.40420025  1
  Sc  Sc4  1  0.75000000  0.00756870  0.79847633  1
  Sc  Sc5  1  0.25000000  0.99243130  0.20152367  1
  Sc  Sc6  1  0.75000000  0.50756870  0.70152367  1
  Sc  Sc7  1  0.25000000  0.49243130  0.29847633  1
  Ni  Ni8  1  0.25000000  0.68139598  0.92276248  1
  Ni  Ni9  1  0.75000000  0.31860402  0.07723752  1
  Ni  Ni10  1  0.25000000  0.18139598  0.57723752  1
  Ni  Ni11  1  0.75000000  0.81860402  0.42276248  1
