# generated using pymatgen
data_MnSiNi
_symmetry_space_group_name_H-M   'P 1'
_cell_length_a   3.56548211
_cell_length_b   5.83803155
_cell_length_c   6.89251912
_cell_angle_alpha   90.00000000
_cell_angle_beta   90.00000000
_cell_angle_gamma   90.00000000
_symmetry_Int_Tables_number   1
_chemical_formula_structural   MnSiNi
_chemical_formula_sum   'Mn4 Si4 Ni4'
_cell_volume   143.47052215
_cell_formula_units_Z   4
loop_
 _symmetry_equiv_pos_site_id
 _symmetry_equiv_pos_as_xyz
  1  'x, y, z'
loop_
 _atom_site_type_symbol
 _atom_site_label
 _atom_site_symmetry_multiplicity
 _atom_site_fract_x
 _atom_site_fract_y
 _atom_site_fract_z
 _atom_site_occupancy
  Si  Si0  1  0.25000000  0.25779690  0.87081080  1
  Si  Si1  1  0.25000000  0.75779690  0.62918920  1
  Si  Si2  1  0.75000000  0.74220310  0.12918920  1
  Si  Si3  1  0.75000000  0.24220310  0.37081080  1
  Mn  Mn4  1  0.75000000  0.46843317  0.67304535  1
  Mn  Mn5  1  0.25000000  0.03156683  0.17304535  1
  Mn  Mn6  1  0.75000000  0.96843317  0.82695465  1
  Mn  Mn7  1  0.25000000  0.53156683  0.32695465  1
  Ni  Ni8  1  0.25000000  0.64341050  0.94138495  1
  Ni  Ni9  1  0.25000000  0.14341050  0.55861505  1
  Ni  Ni10  1  0.75000000  0.85658950  0.44138495  1
  Ni  Ni11  1  0.75000000  0.35658950  0.05861505  1
