# generated using pymatgen
data_ZnCl2
_symmetry_space_group_name_H-M   'P 1'
_cell_length_a   6.35769981
_cell_length_b   6.57585051
_cell_length_c   8.09504101
_cell_angle_alpha   90.00000000
_cell_angle_beta   90.00000000
_cell_angle_gamma   90.00000000
_symmetry_Int_Tables_number   1
_chemical_formula_structural   ZnCl2
_chemical_formula_sum   'Zn4 Cl8'
_cell_volume   338.43167476
_cell_formula_units_Z   4
loop_
 _symmetry_equiv_pos_site_id
 _symmetry_equiv_pos_as_xyz
  1  'x, y, z'
loop_
 _atom_site_type_symbol
 _atom_site_label
 _atom_site_symmetry_multiplicity
 _atom_site_fract_x
 _atom_site_fract_y
 _atom_site_fract_z
 _atom_site_occupancy
  Cl  Cl0  1  0.98590499  0.59073618  0.85919929  1
  Cl  Cl1  1  0.48590499  0.40926382  0.14080071  1
  Cl  Cl2  1  0.48590499  0.90926382  0.35919929  1
  Cl  Cl3  1  0.98590499  0.09073618  0.64080071  1
  Cl  Cl4  1  0.01229876  0.06309242  0.11243076  1
  Cl  Cl5  1  0.51229876  0.93690758  0.88756924  1
  Cl  Cl6  1  0.51229876  0.43690758  0.61243076  1
  Cl  Cl7  1  0.01229876  0.56309242  0.38756924  1
  Zn  Zn8  1  0.37469625  0.57650656  0.37508504  1
  Zn  Zn9  1  0.87469625  0.42349344  0.62491496  1
  Zn  Zn10  1  0.87469625  0.92349344  0.87508504  1
  Zn  Zn11  1  0.37469625  0.07650656  0.12491496  1
