# generated using pymatgen
data_Be2Fe
_symmetry_space_group_name_H-M   'P 1'
_cell_length_a   4.19006603
_cell_length_b   4.19006603
_cell_length_c   6.80847744
_cell_angle_alpha   90.00000000
_cell_angle_beta   90.00000000
_cell_angle_gamma   120.00054517
_symmetry_Int_Tables_number   1
_chemical_formula_structural   Be2Fe
_chemical_formula_sum   'Be8 Fe4'
_cell_volume   103.51897947
_cell_formula_units_Z   4
loop_
 _symmetry_equiv_pos_site_id
 _symmetry_equiv_pos_as_xyz
  1  'x, y, z'
loop_
 _atom_site_type_symbol
 _atom_site_label
 _atom_site_symmetry_multiplicity
 _atom_site_fract_x
 _atom_site_fract_y
 _atom_site_fract_z
 _atom_site_occupancy
  Be  Be0  1  -0.00000000  -0.00000000  0.50000000  1
  Be  Be1  1  -0.00000000  -0.00000000  -0.00000000  1
  Be  Be2  1  0.17025998  0.34050826  0.75000000  1
  Be  Be3  1  0.17025877  0.82974123  0.75000000  1
  Be  Be4  1  0.65949174  0.82974002  0.75000000  1
  Be  Be5  1  0.82974002  0.65949174  0.25000000  1
  Be  Be6  1  0.82974123  0.17025877  0.25000000  1
  Be  Be7  1  0.34050826  0.17025998  0.25000000  1
  Fe  Fe8  1  0.66670161  0.33329839  0.56233388  1
  Fe  Fe9  1  0.33329839  0.66670161  0.43766612  1
  Fe  Fe10  1  0.33329839  0.66670161  0.06233388  1
  Fe  Fe11  1  0.66670161  0.33329839  0.93766612  1
