# generated using pymatgen
data_Si5Pt6
_symmetry_space_group_name_H-M   'P 1'
_cell_length_a   3.53979891
_cell_length_b   6.24482740
_cell_length_c   15.60547028
_cell_angle_alpha   93.51848351
_cell_angle_beta   90.00000000
_cell_angle_gamma   90.00000000
_symmetry_Int_Tables_number   1
_chemical_formula_structural   Si5Pt6
_chemical_formula_sum   'Si10 Pt12'
_cell_volume   344.31543892
_cell_formula_units_Z   2
loop_
 _symmetry_equiv_pos_site_id
 _symmetry_equiv_pos_as_xyz
  1  'x, y, z'
loop_
 _atom_site_type_symbol
 _atom_site_label
 _atom_site_symmetry_multiplicity
 _atom_site_fract_x
 _atom_site_fract_y
 _atom_site_fract_z
 _atom_site_occupancy
  Si  Si0  1  0.75000000  0.22262298  0.42706601  1
  Si  Si1  1  0.25000000  0.77737702  0.57293399  1
  Si  Si2  1  0.25000000  0.31287048  0.27980198  1
  Si  Si3  1  0.75000000  0.68712952  0.72019802  1
  Si  Si4  1  0.25000000  0.76860137  0.33492988  1
  Si  Si5  1  0.75000000  0.23139863  0.66507012  1
  Si  Si6  1  0.25000000  0.43539913  0.06468862  1
  Si  Si7  1  0.75000000  0.56460087  0.93531138  1
  Si  Si8  1  0.75000000  0.94628860  0.11927397  1
  Si  Si9  1  0.25000000  0.05371140  0.88072603  1
  Pt  Pt10  1  0.75000000  0.52757965  0.57704719  1
  Pt  Pt11  1  0.25000000  0.47242035  0.42295281  1
  Pt  Pt12  1  0.75000000  0.85203557  0.44782994  1
  Pt  Pt13  1  0.25000000  0.14796443  0.55217006  1
  Pt  Pt14  1  0.75000000  0.00891539  0.28130072  1
  Pt  Pt15  1  0.25000000  0.99108461  0.71869928  1
  Pt  Pt16  1  0.75000000  0.34272722  0.17420369  1
  Pt  Pt17  1  0.25000000  0.65727278  0.82579631  1
  Pt  Pt18  1  0.25000000  0.72047626  0.17831337  1
  Pt  Pt19  1  0.75000000  0.27952374  0.82168663  1
  Pt  Pt20  1  0.25000000  0.80225725  0.00136945  1
  Pt  Pt21  1  0.75000000  0.19774275  0.99863055  1
