# generated using pymatgen
data_Fe3Ge
_symmetry_space_group_name_H-M   'P 1'
_cell_length_a   4.21831345
_cell_length_b   5.14885499
_cell_length_c   5.14885499
_cell_angle_alpha   120.04265467
_cell_angle_beta   90.00000000
_cell_angle_gamma   90.00000000
_symmetry_Int_Tables_number   1
_chemical_formula_structural   Fe3Ge
_chemical_formula_sum   'Fe6 Ge2'
_cell_volume   96.80637854
_cell_formula_units_Z   2
loop_
 _symmetry_equiv_pos_site_id
 _symmetry_equiv_pos_as_xyz
  1  'x, y, z'
loop_
 _atom_site_type_symbol
 _atom_site_label
 _atom_site_symmetry_multiplicity
 _atom_site_fract_x
 _atom_site_fract_y
 _atom_site_fract_z
 _atom_site_occupancy
  Fe  Fe0  1  0.75000000  0.16253228  0.32509844  1
  Fe  Fe1  1  0.75000000  0.16255072  0.83744928  1
  Fe  Fe2  1  0.75000000  0.67490156  0.83746772  1
  Fe  Fe3  1  0.25000000  0.83746772  0.67490156  1
  Fe  Fe4  1  0.25000000  0.83744928  0.16255072  1
  Fe  Fe5  1  0.25000000  0.32509844  0.16253228  1
  Ge  Ge6  1  0.75000000  0.66668733  0.33331267  1
  Ge  Ge7  1  0.25000000  0.33331267  0.66668733  1
