# generated using pymatgen
data_Ta2Si
_symmetry_space_group_name_H-M   'P 1'
_cell_length_a   5.06435081
_cell_length_b   5.06435081
_cell_length_c   5.06435081
_cell_angle_alpha   104.61668031
_cell_angle_beta   104.61668031
_cell_angle_gamma   119.68939306
_symmetry_Int_Tables_number   1
_chemical_formula_structural   Ta2Si
_chemical_formula_sum   'Ta4 Si2'
_cell_volume   97.56670370
_cell_formula_units_Z   2
loop_
 _symmetry_equiv_pos_site_id
 _symmetry_equiv_pos_as_xyz
  1  'x, y, z'
loop_
 _atom_site_type_symbol
 _atom_site_label
 _atom_site_symmetry_multiplicity
 _atom_site_fract_x
 _atom_site_fract_y
 _atom_site_fract_z
 _atom_site_occupancy
  Ta  Ta0  1  0.83669065  0.33669065  0.17338131  1
  Ta  Ta1  1  0.16330935  0.66330935  0.82661869  1
  Ta  Ta2  1  0.66330935  0.83669065  0.50000000  1
  Ta  Ta3  1  0.33669065  0.16330935  0.50000000  1
  Si  Si4  1  0.75000000  0.75000000  -0.00000000  1
  Si  Si5  1  0.25000000  0.25000000  -0.00000000  1
