# generated using pymatgen
data_ZnO
_symmetry_space_group_name_H-M   'P 1'
_cell_length_a   6.58420090
_cell_length_b   6.58420090
_cell_length_c   10.59530646
_cell_angle_alpha   90.00000000
_cell_angle_beta   90.00000000
_cell_angle_gamma   119.99998991
_symmetry_Int_Tables_number   1
_chemical_formula_structural   ZnO
_chemical_formula_sum   'Zn16 O16'
_cell_volume   397.78678000
_cell_formula_units_Z   16
loop_
 _symmetry_equiv_pos_site_id
 _symmetry_equiv_pos_as_xyz
  1  'x, y, z'
loop_
 _atom_site_type_symbol
 _atom_site_label
 _atom_site_symmetry_multiplicity
 _atom_site_fract_x
 _atom_site_fract_y
 _atom_site_fract_z
 _atom_site_occupancy
  Zn  Zn0  1  0.16666700  0.33333300  0.02984214  1
  Zn  Zn1  1  0.83333300  0.16666700  0.77975525  1
  Zn  Zn2  1  0.83333300  0.16666700  0.27985271  1
  Zn  Zn3  1  0.33333300  0.66666700  0.77975525  1
  Zn  Zn4  1  0.33333300  0.66666700  0.27985271  1
  Zn  Zn5  1  0.33333300  0.16666700  0.77975525  1
  Zn  Zn6  1  0.33333300  0.16666700  0.27985271  1
  Zn  Zn7  1  0.66666700  0.83333300  0.52985623  1
  Zn  Zn8  1  0.66666700  0.83333300  0.02984214  1
  Zn  Zn9  1  0.66666700  0.33333300  0.52985623  1
  Zn  Zn10  1  0.66666700  0.33333300  0.02984214  1
  Zn  Zn11  1  0.16666700  0.83333300  0.52985623  1
  Zn  Zn12  1  0.16666700  0.83333300  0.02984214  1
  Zn  Zn13  1  0.16666700  0.33333300  0.52985623  1
  Zn  Zn14  1  0.83333300  0.66666700  0.27985271  1
  Zn  Zn15  1  0.83333300  0.66666700  0.77975525  1
  O  O16  1  0.83333300  0.66666700  0.97002279  1
  O  O17  1  0.83333300  0.16666700  0.97002279  1
  O  O18  1  0.83333300  0.16666700  0.47024851  1
  O  O19  1  0.33333300  0.66666700  0.97002279  1
  O  O20  1  0.33333300  0.66666700  0.47024851  1
  O  O21  1  0.33333300  0.16666700  0.97002279  1
  O  O22  1  0.33333300  0.16666700  0.47024851  1
  O  O23  1  0.66666700  0.83333300  0.72026441  1
  O  O24  1  0.66666700  0.83333300  0.22015796  1
  O  O25  1  0.66666700  0.33333300  0.72026441  1
  O  O26  1  0.66666700  0.33333300  0.22015796  1
  O  O27  1  0.16666700  0.83333300  0.72026441  1
  O  O28  1  0.16666700  0.83333300  0.22015796  1
  O  O29  1  0.16666700  0.33333300  0.72026441  1
  O  O30  1  0.16666700  0.33333300  0.22015796  1
  O  O31  1  0.83333300  0.66666700  0.47024851  1
