# generated using pymatgen
data_In3Ni2
_symmetry_space_group_name_H-M   'P 1'
_cell_length_a   4.44801822
_cell_length_b   4.44583136
_cell_length_c   5.32017698
_cell_angle_alpha   89.99999998
_cell_angle_beta   90.00899258
_cell_angle_gamma   119.98374827
_symmetry_Int_Tables_number   1
_chemical_formula_structural   In3Ni2
_chemical_formula_sum   'In3 Ni2'
_cell_volume   91.12705709
_cell_formula_units_Z   1
loop_
 _symmetry_equiv_pos_site_id
 _symmetry_equiv_pos_as_xyz
  1  'x, y, z'
loop_
 _atom_site_type_symbol
 _atom_site_label
 _atom_site_symmetry_multiplicity
 _atom_site_fract_x
 _atom_site_fract_y
 _atom_site_fract_z
 _atom_site_occupancy
  In  In0  1  0.00000000  0.00000000  0.00000000  1
  In  In1  1  0.33325264  0.66662632  0.64537231  1
  In  In2  1  0.66674736  0.33337368  0.35462769  1
  Ni  Ni3  1  0.33333163  0.66666582  0.13982049  1
  Ni  Ni4  1  0.66666837  0.33333418  0.86017951  1
