# generated using pymatgen
data_AlPd5I2
_symmetry_space_group_name_H-M   'P 1'
_cell_length_a   4.09948146
_cell_length_b   4.09948147
_cell_length_c   10.78168963
_cell_angle_alpha   100.95938627
_cell_angle_beta   100.95938627
_cell_angle_gamma   90.00000006
_symmetry_Int_Tables_number   1
_chemical_formula_structural   AlPd5I2
_chemical_formula_sum   'Al1 Pd5 I2'
_cell_volume   174.52262438
_cell_formula_units_Z   1
loop_
 _symmetry_equiv_pos_site_id
 _symmetry_equiv_pos_as_xyz
  1  'x, y, z'
loop_
 _atom_site_type_symbol
 _atom_site_label
 _atom_site_symmetry_multiplicity
 _atom_site_fract_x
 _atom_site_fract_y
 _atom_site_fract_z
 _atom_site_occupancy
  Al  Al0  1  0.50000000  0.50000000  0.00000000  1
  Pd  Pd1  1  0.08525285  0.58525285  0.17050570  1
  Pd  Pd2  1  0.58525285  0.08525285  0.17050570  1
  Pd  Pd3  1  0.41474715  0.91474715  0.82949430  1
  Pd  Pd4  1  0.91474715  0.41474715  0.82949430  1
  Pd  Pd5  1  0.00000000  0.00000000  0.00000000  1
  I  I6  1  0.17498210  0.17498210  0.34996419  1
  I  I7  1  0.82501790  0.82501790  0.65003581  1
