# generated using pymatgen
data_BaGe3Pt
_symmetry_space_group_name_H-M   'P 1'
_cell_length_a   4.61862955
_cell_length_b   4.61862955
_cell_length_c   6.15510705
_cell_angle_alpha   112.03585729
_cell_angle_beta   112.03585731
_cell_angle_gamma   90.00000001
_symmetry_Int_Tables_number   1
_chemical_formula_structural   BaGe3Pt
_chemical_formula_sum   'Ba1 Ge3 Pt1'
_cell_volume   111.29255617
_cell_formula_units_Z   1
loop_
 _symmetry_equiv_pos_site_id
 _symmetry_equiv_pos_as_xyz
  1  'x, y, z'
loop_
 _atom_site_type_symbol
 _atom_site_label
 _atom_site_symmetry_multiplicity
 _atom_site_fract_x
 _atom_site_fract_y
 _atom_site_fract_z
 _atom_site_occupancy
  Ge  Ge0  1  0.75361553  0.25361553  0.50723107  1
  Ge  Ge1  1  0.25361553  0.75361553  0.50723107  1
  Ge  Ge2  1  0.40081195  0.40081195  0.80162389  1
  Ba  Ba3  1  0.99973221  0.99973221  0.99946442  1
  Pt  Pt4  1  0.64792478  0.64792478  0.29584956  1
