# generated using pymatgen
data_MnCoGe
_symmetry_space_group_name_H-M   'P 1'
_cell_length_a   3.79894280
_cell_length_b   5.81180851
_cell_length_c   7.05700400
_cell_angle_alpha   90.00000000
_cell_angle_beta   90.00000000
_cell_angle_gamma   90.00000000
_symmetry_Int_Tables_number   1
_chemical_formula_structural   MnCoGe
_chemical_formula_sum   'Mn4 Co4 Ge4'
_cell_volume   155.80967247
_cell_formula_units_Z   4
loop_
 _symmetry_equiv_pos_site_id
 _symmetry_equiv_pos_as_xyz
  1  'x, y, z'
loop_
 _atom_site_type_symbol
 _atom_site_label
 _atom_site_symmetry_multiplicity
 _atom_site_fract_x
 _atom_site_fract_y
 _atom_site_fract_z
 _atom_site_occupancy
  Mn  Mn0  1  0.75000000  0.47150518  0.69508394  1
  Mn  Mn1  1  0.25000000  0.52849482  0.30491606  1
  Mn  Mn2  1  0.25000000  0.02849482  0.19508394  1
  Mn  Mn3  1  0.75000000  0.97150518  0.80491606  1
  Co  Co4  1  0.75000000  0.84048730  0.43831119  1
  Co  Co5  1  0.75000000  0.34048730  0.06168881  1
  Co  Co6  1  0.25000000  0.15951270  0.56168881  1
  Co  Co7  1  0.25000000  0.65951270  0.93831119  1
  Ge  Ge8  1  0.75000000  0.24197636  0.38312840  1
  Ge  Ge9  1  0.25000000  0.75802364  0.61687160  1
  Ge  Ge10  1  0.75000000  0.74197636  0.11687160  1
  Ge  Ge11  1  0.25000000  0.25802364  0.88312840  1
