# generated using pymatgen
data_MnCoP
_symmetry_space_group_name_H-M   'P 1'
_cell_length_a   3.45339023
_cell_length_b   5.88194657
_cell_length_c   6.67331114
_cell_angle_alpha   90.00000000
_cell_angle_beta   90.00000000
_cell_angle_gamma   90.00000000
_symmetry_Int_Tables_number   1
_chemical_formula_structural   MnCoP
_chemical_formula_sum   'Mn4 Co4 P4'
_cell_volume   135.55267903
_cell_formula_units_Z   4
loop_
 _symmetry_equiv_pos_site_id
 _symmetry_equiv_pos_as_xyz
  1  'x, y, z'
loop_
 _atom_site_type_symbol
 _atom_site_label
 _atom_site_symmetry_multiplicity
 _atom_site_fract_x
 _atom_site_fract_y
 _atom_site_fract_z
 _atom_site_occupancy
  Mn  Mn0  1  0.75000000  0.02792108  0.33236529  1
  Mn  Mn1  1  0.25000000  0.97207892  0.66763471  1
  Mn  Mn2  1  0.75000000  0.52792108  0.16763471  1
  Mn  Mn3  1  0.25000000  0.47207892  0.83236529  1
  Co  Co4  1  0.25000000  0.35768032  0.43478660  1
  Co  Co5  1  0.75000000  0.64231968  0.56521340  1
  Co  Co6  1  0.25000000  0.85768032  0.06521340  1
  Co  Co7  1  0.75000000  0.14231968  0.93478660  1
  P  P8  1  0.25000000  0.73379402  0.37406253  1
  P  P9  1  0.75000000  0.26620598  0.62593647  1
  P  P10  1  0.25000000  0.23379402  0.12593647  1
  P  P11  1  0.75000000  0.76620598  0.87406353  1
