# generated using pymatgen
data_Hf3Si2
_symmetry_space_group_name_H-M   'P 1'
_cell_length_a   3.67119541
_cell_length_b   7.03075685
_cell_length_c   7.03075685
_cell_angle_alpha   90.00000000
_cell_angle_beta   90.00000000
_cell_angle_gamma   90.00000000
_symmetry_Int_Tables_number   1
_chemical_formula_structural   Hf3Si2
_chemical_formula_sum   'Hf6 Si4'
_cell_volume   181.47284967
_cell_formula_units_Z   2
loop_
 _symmetry_equiv_pos_site_id
 _symmetry_equiv_pos_as_xyz
  1  'x, y, z'
loop_
 _atom_site_type_symbol
 _atom_site_label
 _atom_site_symmetry_multiplicity
 _atom_site_fract_x
 _atom_site_fract_y
 _atom_site_fract_z
 _atom_site_occupancy
  Si  Si0  1  0.00000000  0.62394947  0.12394947  1
  Si  Si1  1  0.00000000  0.87605053  0.62394947  1
  Si  Si2  1  0.00000000  0.12394947  0.37605053  1
  Si  Si3  1  0.00000000  0.37605053  0.87605053  1
  Hf  Hf4  1  0.50000000  0.67322282  0.82677718  1
  Hf  Hf5  1  0.50000000  0.82677718  0.32677718  1
  Hf  Hf6  1  0.50000000  0.32677718  0.17322282  1
  Hf  Hf7  1  0.50000000  0.17322282  0.67322282  1
  Hf  Hf8  1  0.00000000  0.50000000  0.50000000  1
  Hf  Hf9  1  0.00000000  0.00000000  0.00000000  1
