# generated using pymatgen
data_CoB
_symmetry_space_group_name_H-M   'P 1'
_cell_length_a   3.06477004
_cell_length_b   3.92169576
_cell_length_c   5.16898313
_cell_angle_alpha   90.00000000
_cell_angle_beta   90.00000000
_cell_angle_gamma   90.00000000
_symmetry_Int_Tables_number   1
_chemical_formula_structural   CoB
_chemical_formula_sum   'Co4 B4'
_cell_volume   62.12650276
_cell_formula_units_Z   4
loop_
 _symmetry_equiv_pos_site_id
 _symmetry_equiv_pos_as_xyz
  1  'x, y, z'
loop_
 _atom_site_type_symbol
 _atom_site_label
 _atom_site_symmetry_multiplicity
 _atom_site_fract_x
 _atom_site_fract_y
 _atom_site_fract_z
 _atom_site_occupancy
  B  B0  1  0.25000000  0.87599730  0.53199926  1
  B  B1  1  0.75000000  0.12400270  0.46800074  1
  B  B2  1  0.75000000  0.37599730  0.96800074  1
  B  B3  1  0.25000000  0.62400270  0.03199926  1
  Co  Co4  1  0.25000000  0.37270192  0.67722785  1
  Co  Co5  1  0.75000000  0.62729808  0.32277215  1
  Co  Co6  1  0.75000000  0.87270192  0.82277215  1
  Co  Co7  1  0.25000000  0.12729808  0.17722785  1
