# generated using pymatgen
data_TeO2
_symmetry_space_group_name_H-M   'P 1'
_cell_length_a   5.59917769
_cell_length_b   5.74772550
_cell_length_c   12.28466373
_cell_angle_alpha   90.00000000
_cell_angle_beta   90.00000000
_cell_angle_gamma   90.00000000
_symmetry_Int_Tables_number   1
_chemical_formula_structural   TeO2
_chemical_formula_sum   'Te8 O16'
_cell_volume   395.35163750
_cell_formula_units_Z   8
loop_
 _symmetry_equiv_pos_site_id
 _symmetry_equiv_pos_as_xyz
  1  'x, y, z'
loop_
 _atom_site_type_symbol
 _atom_site_label
 _atom_site_symmetry_multiplicity
 _atom_site_fract_x
 _atom_site_fract_y
 _atom_site_fract_z
 _atom_site_occupancy
  O  O0  1  0.72260512  0.41266765  0.33206881  1
  O  O1  1  0.22260512  0.08733235  0.66793119  1
  O  O2  1  0.27739488  0.91266765  0.16793119  1
  O  O3  1  0.77739488  0.58733235  0.83206881  1
  O  O4  1  0.27739488  0.58733235  0.66793119  1
  O  O5  1  0.77739488  0.91266765  0.33206881  1
  O  O6  1  0.72260512  0.08733235  0.83206881  1
  O  O7  1  0.22260512  0.41266765  0.16793119  1
  O  O8  1  0.35567853  0.66170334  0.96960239  1
  O  O9  1  0.85567853  0.83829666  0.03039761  1
  O  O10  1  0.64432147  0.16170334  0.53039761  1
  O  O11  1  0.14432147  0.33829666  0.46960239  1
  O  O12  1  0.64432147  0.33829666  0.03039761  1
  O  O13  1  0.14432147  0.16170334  0.96960239  1
  O  O14  1  0.35567853  0.83829666  0.46960239  1
  O  O15  1  0.85567853  0.66170334  0.53039761  1
  Te  Te16  1  0.52970157  0.12124140  0.38358784  1
  Te  Te17  1  0.02970157  0.37875860  0.61641216  1
  Te  Te18  1  0.47029843  0.62124140  0.11641216  1
  Te  Te19  1  0.97029843  0.87875860  0.88358784  1
  Te  Te20  1  0.47029843  0.87875860  0.61641216  1
  Te  Te21  1  0.97029843  0.62124140  0.38358784  1
  Te  Te22  1  0.52970157  0.37875860  0.88358784  1
  Te  Te23  1  0.02970157  0.12124140  0.11641216  1
