# generated using pymatgen
data_Fe3Sn
_symmetry_space_group_name_H-M   'P 1'
_cell_length_a   4.31041770
_cell_length_b   5.48711864
_cell_length_c   5.48711864
_cell_angle_alpha   120.01276143
_cell_angle_beta   90.00000000
_cell_angle_gamma   90.00000000
_symmetry_Int_Tables_number   1
_chemical_formula_structural   Fe3Sn
_chemical_formula_sum   'Fe6 Sn2'
_cell_volume   112.37839580
_cell_formula_units_Z   2
loop_
 _symmetry_equiv_pos_site_id
 _symmetry_equiv_pos_as_xyz
  1  'x, y, z'
loop_
 _atom_site_type_symbol
 _atom_site_label
 _atom_site_symmetry_multiplicity
 _atom_site_fract_x
 _atom_site_fract_y
 _atom_site_fract_z
 _atom_site_occupancy
  Fe  Fe0  1  0.75000000  0.15074674  0.30150324  1
  Fe  Fe1  1  0.75000000  0.15065180  0.84934820  1
  Fe  Fe2  1  0.75000000  0.69849676  0.84925326  1
  Fe  Fe3  1  0.25000000  0.84925326  0.69849676  1
  Fe  Fe4  1  0.25000000  0.84934820  0.15065180  1
  Fe  Fe5  1  0.25000000  0.30150324  0.15074674  1
  Sn  Sn6  1  0.75000000  0.66665537  0.33334463  1
  Sn  Sn7  1  0.25000000  0.33334463  0.66665537  1
