# generated using pymatgen
data_Si2NiP3
_symmetry_space_group_name_H-M   'P 1'
_cell_length_a   3.51721663
_cell_length_b   5.32754298
_cell_length_c   6.42586244
_cell_angle_alpha   114.49029734
_cell_angle_beta   105.88316498
_cell_angle_gamma   89.99999991
_symmetry_Int_Tables_number   1
_chemical_formula_structural   Si2NiP3
_chemical_formula_sum   'Si2 Ni1 P3'
_cell_volume   104.50317820
_cell_formula_units_Z   1
loop_
 _symmetry_equiv_pos_site_id
 _symmetry_equiv_pos_as_xyz
  1  'x, y, z'
loop_
 _atom_site_type_symbol
 _atom_site_label
 _atom_site_symmetry_multiplicity
 _atom_site_fract_x
 _atom_site_fract_y
 _atom_site_fract_z
 _atom_site_occupancy
  Si  Si0  1  0.83479344  0.07721907  0.66958689  1
  Si  Si1  1  0.16520656  0.40763219  0.33041311  1
  P  P2  1  0.00000000  0.99618032  0.00000000  1
  P  P3  1  0.33790460  0.34951305  0.67580920  1
  P  P4  1  0.66209540  0.67370385  0.32419080  1
  Ni  Ni5  1  0.50000000  0.75235152  0.00000000  1
