# generated using pymatgen
data_NbSiPd
_symmetry_space_group_name_H-M   'P 1'
_cell_length_a   3.79767713
_cell_length_b   6.48368330
_cell_length_c   7.49140930
_cell_angle_alpha   90.00000000
_cell_angle_beta   90.00000000
_cell_angle_gamma   90.00000000
_symmetry_Int_Tables_number   1
_chemical_formula_structural   NbSiPd
_chemical_formula_sum   'Nb4 Si4 Pd4'
_cell_volume   184.46049014
_cell_formula_units_Z   4
loop_
 _symmetry_equiv_pos_site_id
 _symmetry_equiv_pos_as_xyz
  1  'x, y, z'
loop_
 _atom_site_type_symbol
 _atom_site_label
 _atom_site_symmetry_multiplicity
 _atom_site_fract_x
 _atom_site_fract_y
 _atom_site_fract_z
 _atom_site_occupancy
  Si  Si0  1  0.25000000  0.23265744  0.12918105  1
  Si  Si1  1  0.25000000  0.73265744  0.37081895  1
  Si  Si2  1  0.75000000  0.76734256  0.87081895  1
  Si  Si3  1  0.75000000  0.26734256  0.62918105  1
  Nb  Nb4  1  0.75000000  0.52758029  0.16525132  1
  Nb  Nb5  1  0.25000000  0.97241971  0.66525132  1
  Nb  Nb6  1  0.75000000  0.02758029  0.33474868  1
  Nb  Nb7  1  0.25000000  0.47241971  0.83474868  1
  Pd  Pd8  1  0.25000000  0.85153306  0.06244251  1
  Pd  Pd9  1  0.25000000  0.35153306  0.43755749  1
  Pd  Pd10  1  0.75000000  0.64846694  0.56244251  1
  Pd  Pd11  1  0.75000000  0.14846694  0.93755749  1
