# generated using pymatgen
data_MnNiGe
_symmetry_space_group_name_H-M   'P 1'
_cell_length_a   3.66568631
_cell_length_b   6.03433660
_cell_length_c   7.11139516
_cell_angle_alpha   90.00000000
_cell_angle_beta   90.00000000
_cell_angle_gamma   90.00000000
_symmetry_Int_Tables_number   1
_chemical_formula_structural   MnNiGe
_chemical_formula_sum   'Mn4 Ni4 Ge4'
_cell_volume   157.30395473
_cell_formula_units_Z   4
loop_
 _symmetry_equiv_pos_site_id
 _symmetry_equiv_pos_as_xyz
  1  'x, y, z'
loop_
 _atom_site_type_symbol
 _atom_site_label
 _atom_site_symmetry_multiplicity
 _atom_site_fract_x
 _atom_site_fract_y
 _atom_site_fract_z
 _atom_site_occupancy
  Mn  Mn0  1  0.75000000  0.46540300  0.67774594  1
  Mn  Mn1  1  0.25000000  0.03459700  0.17774594  1
  Mn  Mn2  1  0.75000000  0.96540300  0.82225406  1
  Mn  Mn3  1  0.25000000  0.53459700  0.32225406  1
  Ni  Ni4  1  0.25000000  0.14121473  0.55900686  1
  Ni  Ni5  1  0.75000000  0.35878527  0.05900686  1
  Ni  Ni6  1  0.25000000  0.64121473  0.94099314  1
  Ni  Ni7  1  0.75000000  0.85878527  0.44099314  1
  Ge  Ge8  1  0.25000000  0.25220318  0.87238367  1
  Ge  Ge9  1  0.75000000  0.74779682  0.12761633  1
  Ge  Ge10  1  0.25000000  0.75220318  0.62761633  1
  Ge  Ge11  1  0.75000000  0.24779682  0.37238367  1
