# generated using pymatgen
data_Cd(InSe2)2
_symmetry_space_group_name_H-M   'P 1'
_cell_length_a   5.99090026
_cell_length_b   5.99090026
_cell_length_c   7.26916870
_cell_angle_alpha   114.33531423
_cell_angle_beta   114.33531429
_cell_angle_gamma   89.99999995
_symmetry_Int_Tables_number   1
_chemical_formula_structural   Cd(InSe2)2
_chemical_formula_sum   'Cd1 In2 Se4'
_cell_volume   212.01573109
_cell_formula_units_Z   1
loop_
 _symmetry_equiv_pos_site_id
 _symmetry_equiv_pos_as_xyz
  1  'x, y, z'
loop_
 _atom_site_type_symbol
 _atom_site_label
 _atom_site_symmetry_multiplicity
 _atom_site_fract_x
 _atom_site_fract_y
 _atom_site_fract_z
 _atom_site_occupancy
  Se  Se0  1  0.86327287  0.90145254  0.27322230  1
  Se  Se1  1  0.62823024  0.13672713  0.72677770  1
  Se  Se2  1  0.09854746  0.59005058  0.72677770  1
  Se  Se3  1  0.40994942  0.37176976  0.27322230  1
  Cd  Cd4  1  0.00000000  0.00000000  0.00000000  1
  In  In5  1  0.50000000  0.50000000  0.00000000  1
  In  In6  1  0.25000000  0.75000000  0.50000000  1
