# generated using pymatgen
data_Sb2Rh
_symmetry_space_group_name_H-M   'P 1'
_cell_length_a   6.65258373
_cell_length_b   6.70830225
_cell_length_c   6.78729781
_cell_angle_alpha   116.36749062
_cell_angle_beta   90.00000000
_cell_angle_gamma   90.00000000
_symmetry_Int_Tables_number   1
_chemical_formula_structural   Sb2Rh
_chemical_formula_sum   'Sb8 Rh4'
_cell_volume   271.38784259
_cell_formula_units_Z   4
loop_
 _symmetry_equiv_pos_site_id
 _symmetry_equiv_pos_as_xyz
  1  'x, y, z'
loop_
 _atom_site_type_symbol
 _atom_site_label
 _atom_site_symmetry_multiplicity
 _atom_site_fract_x
 _atom_site_fract_y
 _atom_site_fract_z
 _atom_site_occupancy
  Rh  Rh0  1  0.00052615  0.72849699  0.71270478  1
  Rh  Rh1  1  0.50052615  0.27150301  0.78729522  1
  Rh  Rh2  1  0.99947385  0.27150301  0.28729522  1
  Rh  Rh3  1  0.49947385  0.72849699  0.21270478  1
  Sb  Sb4  1  0.63854418  0.65529782  0.82464673  1
  Sb  Sb5  1  0.13854418  0.34470218  0.67535327  1
  Sb  Sb6  1  0.36145582  0.34470218  0.17535327  1
  Sb  Sb7  1  0.86145582  0.65529782  0.32464673  1
  Sb  Sb8  1  0.36322895  0.84928373  0.62688293  1
  Sb  Sb9  1  0.86322895  0.15071627  0.87311707  1
  Sb  Sb10  1  0.63677105  0.15071627  0.37311707  1
  Sb  Sb11  1  0.13677105  0.84928373  0.12688293  1
