# generated using pymatgen
data_SrGePt
_symmetry_space_group_name_H-M   'P 1'
_cell_length_a   6.69206265
_cell_length_b   6.69206265
_cell_length_c   6.69206265
_cell_angle_alpha   90.00000000
_cell_angle_beta   90.00000000
_cell_angle_gamma   90.00000000
_symmetry_Int_Tables_number   1
_chemical_formula_structural   SrGePt
_chemical_formula_sum   'Sr4 Ge4 Pt4'
_cell_volume   299.69534291
_cell_formula_units_Z   4
loop_
 _symmetry_equiv_pos_site_id
 _symmetry_equiv_pos_as_xyz
  1  'x, y, z'
loop_
 _atom_site_type_symbol
 _atom_site_label
 _atom_site_symmetry_multiplicity
 _atom_site_fract_x
 _atom_site_fract_y
 _atom_site_fract_z
 _atom_site_occupancy
  Ge  Ge0  1  0.16547835  0.33452165  0.66547835  1
  Ge  Ge1  1  0.33452165  0.66547835  0.16547835  1
  Ge  Ge2  1  0.66547835  0.16547835  0.33452165  1
  Ge  Ge3  1  0.83452165  0.83452165  0.83452165  1
  Sr  Sr4  1  0.13584100  0.13584100  0.13584100  1
  Sr  Sr5  1  0.36415900  0.86415900  0.63584100  1
  Sr  Sr6  1  0.63584100  0.36415900  0.86415900  1
  Sr  Sr7  1  0.86415900  0.63584100  0.36415900  1
  Pt  Pt8  1  0.58260523  0.91739477  0.08260523  1
  Pt  Pt9  1  0.91739477  0.08260523  0.58260523  1
  Pt  Pt10  1  0.08260523  0.58260523  0.91739477  1
  Pt  Pt11  1  0.41739477  0.41739477  0.41739477  1
