# generated using pymatgen
data_TiCoSi
_symmetry_space_group_name_H-M   'P 1'
_cell_length_a   3.70496676
_cell_length_b   6.12467502
_cell_length_c   6.89266720
_cell_angle_alpha   90.00000000
_cell_angle_beta   90.00000000
_cell_angle_gamma   90.00000000
_symmetry_Int_Tables_number   1
_chemical_formula_structural   TiCoSi
_chemical_formula_sum   'Ti4 Co4 Si4'
_cell_volume   156.40645599
_cell_formula_units_Z   4
loop_
 _symmetry_equiv_pos_site_id
 _symmetry_equiv_pos_as_xyz
  1  'x, y, z'
loop_
 _atom_site_type_symbol
 _atom_site_label
 _atom_site_symmetry_multiplicity
 _atom_site_fract_x
 _atom_site_fract_y
 _atom_site_fract_z
 _atom_site_occupancy
  Si  Si0  1  0.75000000  0.72676457  0.11427895  1
  Si  Si1  1  0.25000000  0.77323543  0.61427895  1
  Si  Si2  1  0.75000000  0.22676457  0.38572105  1
  Si  Si3  1  0.25000000  0.27323543  0.88572105  1
  Ti  Ti4  1  0.25000000  0.01552977  0.19075612  1
  Ti  Ti5  1  0.75000000  0.48447023  0.69075612  1
  Ti  Ti6  1  0.25000000  0.51552977  0.30924388  1
  Ti  Ti7  1  0.75000000  0.98447023  0.80924388  1
  Co  Co8  1  0.25000000  0.64540067  0.93468613  1
  Co  Co9  1  0.75000000  0.35459933  0.06531387  1
  Co  Co10  1  0.25000000  0.14540067  0.56531387  1
  Co  Co11  1  0.75000000  0.85459933  0.43468613  1
