# generated using pymatgen
data_YAlGe
_symmetry_space_group_name_H-M   'P 1'
_cell_length_a   4.07319194
_cell_length_b   5.61818117
_cell_length_c   5.78627263
_cell_angle_alpha   90.00000000
_cell_angle_beta   90.00000000
_cell_angle_gamma   111.25386712
_symmetry_Int_Tables_number   1
_chemical_formula_structural   YAlGe
_chemical_formula_sum   'Y2 Al2 Ge2'
_cell_volume   123.40640118
_cell_formula_units_Z   2
loop_
 _symmetry_equiv_pos_site_id
 _symmetry_equiv_pos_as_xyz
  1  'x, y, z'
loop_
 _atom_site_type_symbol
 _atom_site_label
 _atom_site_symmetry_multiplicity
 _atom_site_fract_x
 _atom_site_fract_y
 _atom_site_fract_z
 _atom_site_occupancy
  Al  Al0  1  0.00000000  0.00000000  0.50000000  1
  Al  Al1  1  0.00000000  0.00000000  0.00000000  1
  Ge  Ge2  1  0.60559900  0.21119800  0.75000000  1
  Ge  Ge3  1  0.39440100  0.78880200  0.25000000  1
  Y  Y4  1  0.68974424  0.37948847  0.25000000  1
  Y  Y5  1  0.31025576  0.62051153  0.75000000  1
