# generated using pymatgen
data_NbSiIr
_symmetry_space_group_name_H-M   'P 1'
_cell_length_a   3.81765168
_cell_length_b   6.46643233
_cell_length_c   7.33579635
_cell_angle_alpha   90.00000000
_cell_angle_beta   90.00000000
_cell_angle_gamma   90.00000000
_symmetry_Int_Tables_number   1
_chemical_formula_structural   NbSiIr
_chemical_formula_sum   'Nb4 Si4 Ir4'
_cell_volume   181.09576929
_cell_formula_units_Z   4
loop_
 _symmetry_equiv_pos_site_id
 _symmetry_equiv_pos_as_xyz
  1  'x, y, z'
loop_
 _atom_site_type_symbol
 _atom_site_label
 _atom_site_symmetry_multiplicity
 _atom_site_fract_x
 _atom_site_fract_y
 _atom_site_fract_z
 _atom_site_occupancy
  Si  Si0  1  0.25000000  0.23013774  0.12490331  1
  Si  Si1  1  0.25000000  0.73013774  0.37509669  1
  Si  Si2  1  0.75000000  0.76986226  0.87509669  1
  Si  Si3  1  0.75000000  0.26986226  0.62490331  1
  Nb  Nb4  1  0.75000000  0.52413950  0.17186557  1
  Nb  Nb5  1  0.25000000  0.97586050  0.67186557  1
  Nb  Nb6  1  0.75000000  0.02413950  0.32813443  1
  Nb  Nb7  1  0.25000000  0.47586050  0.82813443  1
  Ir  Ir8  1  0.25000000  0.85412181  0.06292740  1
  Ir  Ir9  1  0.25000000  0.35412181  0.43707260  1
  Ir  Ir10  1  0.75000000  0.64587819  0.56292740  1
  Ir  Ir11  1  0.75000000  0.14587819  0.93707260  1
