# generated using pymatgen
data_FeB
_symmetry_space_group_name_H-M   'P 1'
_cell_length_a   2.94861205
_cell_length_b   3.99755395
_cell_length_c   5.40819510
_cell_angle_alpha   90.00000000
_cell_angle_beta   90.00000000
_cell_angle_gamma   90.00000000
_symmetry_Int_Tables_number   1
_chemical_formula_structural   FeB
_chemical_formula_sum   'Fe4 B4'
_cell_volume   63.74767061
_cell_formula_units_Z   4
loop_
 _symmetry_equiv_pos_site_id
 _symmetry_equiv_pos_as_xyz
  1  'x, y, z'
loop_
 _atom_site_type_symbol
 _atom_site_label
 _atom_site_symmetry_multiplicity
 _atom_site_fract_x
 _atom_site_fract_y
 _atom_site_fract_z
 _atom_site_occupancy
  B  B0  1  0.25000000  0.88132569  0.53423374  1
  B  B1  1  0.75000000  0.11867431  0.46576626  1
  B  B2  1  0.75000000  0.38132569  0.96576626  1
  B  B3  1  0.25000000  0.61867431  0.03423374  1
  Fe  Fe4  1  0.25000000  0.37992735  0.67814469  1
  Fe  Fe5  1  0.75000000  0.62007265  0.32185531  1
  Fe  Fe6  1  0.75000000  0.87992735  0.82185531  1
  Fe  Fe7  1  0.25000000  0.12007265  0.17814469  1
