# generated using pymatgen
data_MnSiIr
_symmetry_space_group_name_H-M   'P 1'
_cell_length_a   3.87544556
_cell_length_b   6.05524381
_cell_length_c   7.23784245
_cell_angle_alpha   90.00000000
_cell_angle_beta   90.00000000
_cell_angle_gamma   90.00000000
_symmetry_Int_Tables_number   1
_chemical_formula_structural   MnSiIr
_chemical_formula_sum   'Mn4 Si4 Ir4'
_cell_volume   169.84876770
_cell_formula_units_Z   4
loop_
 _symmetry_equiv_pos_site_id
 _symmetry_equiv_pos_as_xyz
  1  'x, y, z'
loop_
 _atom_site_type_symbol
 _atom_site_label
 _atom_site_symmetry_multiplicity
 _atom_site_fract_x
 _atom_site_fract_y
 _atom_site_fract_z
 _atom_site_occupancy
  Mn  Mn0  1  0.75000000  0.96867582  0.81971853  1
  Mn  Mn1  1  0.25000000  0.03132418  0.18028147  1
  Mn  Mn2  1  0.75000000  0.46867582  0.68028147  1
  Mn  Mn3  1  0.25000000  0.53132418  0.31971853  1
  Si  Si4  1  0.25000000  0.26747244  0.87666306  1
  Si  Si5  1  0.75000000  0.73252756  0.12333694  1
  Si  Si6  1  0.25000000  0.76747244  0.62333694  1
  Si  Si7  1  0.75000000  0.23252756  0.37666306  1
  Ir  Ir8  1  0.25000000  0.66359347  0.93756222  1
  Ir  Ir9  1  0.75000000  0.33640653  0.06243778  1
  Ir  Ir10  1  0.25000000  0.16359347  0.56243778  1
  Ir  Ir11  1  0.75000000  0.83640653  0.43756222  1
