# generated using pymatgen
data_NbCrGe
_symmetry_space_group_name_H-M   'P 1'
_cell_length_a   6.76981599
_cell_length_b   6.76981600
_cell_length_c   3.37733963
_cell_angle_alpha   90.00000000
_cell_angle_beta   90.00000000
_cell_angle_gamma   120.00000002
_symmetry_Int_Tables_number   1
_chemical_formula_structural   NbCrGe
_chemical_formula_sum   'Nb3 Cr3 Ge3'
_cell_volume   134.04761665
_cell_formula_units_Z   3
loop_
 _symmetry_equiv_pos_site_id
 _symmetry_equiv_pos_as_xyz
  1  'x, y, z'
loop_
 _atom_site_type_symbol
 _atom_site_label
 _atom_site_symmetry_multiplicity
 _atom_site_fract_x
 _atom_site_fract_y
 _atom_site_fract_z
 _atom_site_occupancy
  Cr  Cr0  1  0.25627423  0.00000000  0.00000000  1
  Cr  Cr1  1  0.74372577  0.74372577  0.00000000  1
  Cr  Cr2  1  0.00000000  0.25627423  0.00000000  1
  Ge  Ge3  1  0.66666667  0.33333333  0.00000000  1
  Ge  Ge4  1  0.00000000  0.00000000  0.50000000  1
  Ge  Ge5  1  0.33333333  0.66666667  0.00000000  1
  Nb  Nb6  1  0.00000000  0.59579092  0.50000000  1
  Nb  Nb7  1  0.59579092  0.00000000  0.50000000  1
  Nb  Nb8  1  0.40420908  0.40420908  0.50000000  1
