# generated using pymatgen
data_CoO
_symmetry_space_group_name_H-M   'P 1'
_cell_length_a   3.26190825
_cell_length_b   3.26190815
_cell_length_c   5.58530559
_cell_angle_alpha   90.00000332
_cell_angle_beta   73.02179187
_cell_angle_gamma   60.00000069
_symmetry_Int_Tables_number   1
_chemical_formula_structural   CoO
_chemical_formula_sum   'Co2 O2'
_cell_volume   48.45219834
_cell_formula_units_Z   2
loop_
 _symmetry_equiv_pos_site_id
 _symmetry_equiv_pos_as_xyz
  1  'x, y, z'
loop_
 _atom_site_type_symbol
 _atom_site_label
 _atom_site_symmetry_multiplicity
 _atom_site_fract_x
 _atom_site_fract_y
 _atom_site_fract_z
 _atom_site_occupancy
  Co  Co0  1  0.00080800  0.99959600  0.99878801  1
  Co  Co1  1  0.00079542  0.49960229  0.49880687  1
  O  O2  1  0.24923449  0.37538276  0.12614827  1
  O  O3  1  0.24916210  0.87541895  0.62625685  1
