# generated using pymatgen
data_YSiRu
_symmetry_space_group_name_H-M   'P 1'
_cell_length_a   4.31497242
_cell_length_b   7.01027578
_cell_length_c   7.18880567
_cell_angle_alpha   90.00000000
_cell_angle_beta   90.00000000
_cell_angle_gamma   90.00000000
_symmetry_Int_Tables_number   1
_chemical_formula_structural   YSiRu
_chemical_formula_sum   'Y4 Si4 Ru4'
_cell_volume   217.45523693
_cell_formula_units_Z   4
loop_
 _symmetry_equiv_pos_site_id
 _symmetry_equiv_pos_as_xyz
  1  'x, y, z'
loop_
 _atom_site_type_symbol
 _atom_site_label
 _atom_site_symmetry_multiplicity
 _atom_site_fract_x
 _atom_site_fract_y
 _atom_site_fract_z
 _atom_site_occupancy
  Si  Si0  1  0.25000000  0.30375409  0.89425052  1
  Si  Si1  1  0.25000000  0.80375409  0.60574948  1
  Si  Si2  1  0.75000000  0.69624591  0.10574948  1
  Si  Si3  1  0.75000000  0.19624591  0.39425052  1
  Y  Y4  1  0.75000000  0.01020523  0.81327169  1
  Y  Y5  1  0.25000000  0.48979477  0.31327169  1
  Y  Y6  1  0.75000000  0.51020523  0.68672831  1
  Y  Y7  1  0.25000000  0.98979477  0.18672831  1
  Ru  Ru8  1  0.25000000  0.65341119  0.93344857  1
  Ru  Ru9  1  0.25000000  0.15341119  0.56655143  1
  Ru  Ru10  1  0.75000000  0.84658881  0.43344857  1
  Ru  Ru11  1  0.75000000  0.34658881  0.06655143  1
