# generated using pymatgen
data_Rb2ZrCl6
_symmetry_space_group_name_H-M   'P 1'
_cell_length_a   7.38781204
_cell_length_b   7.38781203
_cell_length_c   7.38781203
_cell_angle_alpha   59.99999995
_cell_angle_beta   59.99999998
_cell_angle_gamma   59.99999998
_symmetry_Int_Tables_number   1
_chemical_formula_structural   Rb2ZrCl6
_chemical_formula_sum   'Rb2 Zr1 Cl6'
_cell_volume   285.12317161
_cell_formula_units_Z   1
loop_
 _symmetry_equiv_pos_site_id
 _symmetry_equiv_pos_as_xyz
  1  'x, y, z'
loop_
 _atom_site_type_symbol
 _atom_site_label
 _atom_site_symmetry_multiplicity
 _atom_site_fract_x
 _atom_site_fract_y
 _atom_site_fract_z
 _atom_site_occupancy
  Cl  Cl0  1  0.23839590  0.76160410  0.76160410  1
  Cl  Cl1  1  0.23839590  0.76160410  0.23839590  1
  Cl  Cl2  1  0.76160410  0.23839590  0.76160410  1
  Cl  Cl3  1  0.76160410  0.23839590  0.23839590  1
  Cl  Cl4  1  0.76160410  0.76160410  0.23839590  1
  Cl  Cl5  1  0.23839590  0.23839590  0.76160410  1
  Rb  Rb6  1  0.75000000  0.75000000  0.75000000  1
  Rb  Rb7  1  0.25000000  0.25000000  0.25000000  1
  Zr  Zr8  1  0.00000000  0.00000000  0.00000000  1
