# generated using pymatgen
data_ZrFeP
_symmetry_space_group_name_H-M   'P 1'
_cell_length_a   3.76183068
_cell_length_b   6.33153278
_cell_length_c   7.08834379
_cell_angle_alpha   90.00000000
_cell_angle_beta   90.00000000
_cell_angle_gamma   90.00000000
_symmetry_Int_Tables_number   1
_chemical_formula_structural   ZrFeP
_chemical_formula_sum   'Zr4 Fe4 P4'
_cell_volume   168.83126586
_cell_formula_units_Z   4
loop_
 _symmetry_equiv_pos_site_id
 _symmetry_equiv_pos_as_xyz
  1  'x, y, z'
loop_
 _atom_site_type_symbol
 _atom_site_label
 _atom_site_symmetry_multiplicity
 _atom_site_fract_x
 _atom_site_fract_y
 _atom_site_fract_z
 _atom_site_occupancy
  P  P0  1  0.25000000  0.28353820  0.88826662  1
  P  P1  1  0.75000000  0.71646180  0.11173338  1
  P  P2  1  0.25000000  0.78353820  0.61173338  1
  P  P3  1  0.75000000  0.21646180  0.38826662  1
  Fe  Fe4  1  0.75000000  0.85408946  0.43820289  1
  Fe  Fe5  1  0.25000000  0.14591054  0.56179711  1
  Fe  Fe6  1  0.75000000  0.35408946  0.06179711  1
  Fe  Fe7  1  0.25000000  0.64591054  0.93820289  1
  Zr  Zr8  1  0.25000000  0.51485412  0.31469047  1
  Zr  Zr9  1  0.75000000  0.48514588  0.68530953  1
  Zr  Zr10  1  0.25000000  0.01485412  0.18530953  1
  Zr  Zr11  1  0.75000000  0.98514588  0.81469047  1
