# generated using pymatgen
data_MnNbP
_symmetry_space_group_name_H-M   'P 1'
_cell_length_a   3.58868912
_cell_length_b   6.18586169
_cell_length_c   7.16927524
_cell_angle_alpha   90.00000000
_cell_angle_beta   90.00000000
_cell_angle_gamma   90.00000000
_symmetry_Int_Tables_number   1
_chemical_formula_structural   MnNbP
_chemical_formula_sum   'Mn4 Nb4 P4'
_cell_volume   159.15170564
_cell_formula_units_Z   4
loop_
 _symmetry_equiv_pos_site_id
 _symmetry_equiv_pos_as_xyz
  1  'x, y, z'
loop_
 _atom_site_type_symbol
 _atom_site_label
 _atom_site_symmetry_multiplicity
 _atom_site_fract_x
 _atom_site_fract_y
 _atom_site_fract_z
 _atom_site_occupancy
  P  P0  1  0.25000000  0.27266750  0.87267397  1
  P  P1  1  0.75000000  0.72733250  0.12732603  1
  P  P2  1  0.25000000  0.77266750  0.62732603  1
  P  P3  1  0.75000000  0.22733250  0.37267397  1
  Mn  Mn4  1  0.75000000  0.85970051  0.44156179  1
  Mn  Mn5  1  0.25000000  0.14029949  0.55843821  1
  Mn  Mn6  1  0.75000000  0.35970051  0.05843821  1
  Mn  Mn7  1  0.25000000  0.64029949  0.94156179  1
  Nb  Nb8  1  0.25000000  0.52809763  0.32572748  1
  Nb  Nb9  1  0.75000000  0.47190237  0.67427252  1
  Nb  Nb10  1  0.25000000  0.02809763  0.17427252  1
  Nb  Nb11  1  0.75000000  0.97190237  0.82572748  1
