# generated using pymatgen
data_ZrTe3
_symmetry_space_group_name_H-M   'P 1'
_cell_length_a   3.95003082
_cell_length_b   5.98696999
_cell_length_c   10.42713860
_cell_angle_alpha   83.14921235
_cell_angle_beta   90.00000000
_cell_angle_gamma   90.00000000
_symmetry_Int_Tables_number   1
_chemical_formula_structural   ZrTe3
_chemical_formula_sum   'Zr2 Te6'
_cell_volume   244.82783828
_cell_formula_units_Z   2
loop_
 _symmetry_equiv_pos_site_id
 _symmetry_equiv_pos_as_xyz
  1  'x, y, z'
loop_
 _atom_site_type_symbol
 _atom_site_label
 _atom_site_symmetry_multiplicity
 _atom_site_fract_x
 _atom_site_fract_y
 _atom_site_fract_z
 _atom_site_occupancy
  Zr  Zr0  1  0.75000000  0.28343565  0.33717515  1
  Zr  Zr1  1  0.25000000  0.71656435  0.66282485  1
  Te  Te2  1  0.75000000  0.44341765  0.82506853  1
  Te  Te3  1  0.25000000  0.55658235  0.17493147  1
  Te  Te4  1  0.75000000  0.91788764  0.82757116  1
  Te  Te5  1  0.25000000  0.08211236  0.17242884  1
  Te  Te6  1  0.75000000  0.76216525  0.44496998  1
  Te  Te7  1  0.25000000  0.23783475  0.55503002  1
