# generated using pymatgen
data_CoP
_symmetry_space_group_name_H-M   'P 1'
_cell_length_a   3.26905778
_cell_length_b   5.07220918
_cell_length_c   5.55512950
_cell_angle_alpha   90.00000000
_cell_angle_beta   90.00000000
_cell_angle_gamma   90.00000000
_symmetry_Int_Tables_number   1
_chemical_formula_structural   CoP
_chemical_formula_sum   'Co4 P4'
_cell_volume   92.11151810
_cell_formula_units_Z   4
loop_
 _symmetry_equiv_pos_site_id
 _symmetry_equiv_pos_as_xyz
  1  'x, y, z'
loop_
 _atom_site_type_symbol
 _atom_site_label
 _atom_site_symmetry_multiplicity
 _atom_site_fract_x
 _atom_site_fract_y
 _atom_site_fract_z
 _atom_site_occupancy
  P  P0  1  0.25000000  0.69101970  0.91824097  1
  P  P1  1  0.75000000  0.30898030  0.08175903  1
  P  P2  1  0.25000000  0.19101970  0.58175903  1
  P  P3  1  0.75000000  0.80898030  0.41824097  1
  Co  Co4  1  0.25000000  0.50124573  0.30355549  1
  Co  Co5  1  0.75000000  0.49875427  0.69644451  1
  Co  Co6  1  0.25000000  0.00124573  0.19644451  1
  Co  Co7  1  0.75000000  0.99875427  0.80355549  1
