# generated using pymatgen
data_TaSiIr
_symmetry_space_group_name_H-M   'P 1'
_cell_length_a   3.81427912
_cell_length_b   6.43128148
_cell_length_c   7.32752116
_cell_angle_alpha   90.00000000
_cell_angle_beta   90.00000000
_cell_angle_gamma   90.00000000
_symmetry_Int_Tables_number   1
_chemical_formula_structural   TaSiIr
_chemical_formula_sum   'Ta4 Si4 Ir4'
_cell_volume   179.74924284
_cell_formula_units_Z   4
loop_
 _symmetry_equiv_pos_site_id
 _symmetry_equiv_pos_as_xyz
  1  'x, y, z'
loop_
 _atom_site_type_symbol
 _atom_site_label
 _atom_site_symmetry_multiplicity
 _atom_site_fract_x
 _atom_site_fract_y
 _atom_site_fract_z
 _atom_site_occupancy
  Si  Si0  1  0.25000000  0.23260127  0.12398067  1
  Si  Si1  1  0.25000000  0.73260127  0.37601933  1
  Si  Si2  1  0.75000000  0.76739873  0.87601933  1
  Si  Si3  1  0.75000000  0.26739873  0.62398067  1
  Ta  Ta4  1  0.75000000  0.52422613  0.17217795  1
  Ta  Ta5  1  0.25000000  0.97577387  0.67217795  1
  Ta  Ta6  1  0.75000000  0.02422613  0.32782205  1
  Ta  Ta7  1  0.25000000  0.47577387  0.82782205  1
  Ir  Ir8  1  0.25000000  0.85461384  0.06489611  1
  Ir  Ir9  1  0.25000000  0.35461384  0.43510389  1
  Ir  Ir10  1  0.75000000  0.64538616  0.56489611  1
  Ir  Ir11  1  0.75000000  0.14538616  0.93510389  1
