# generated using pymatgen
data_Ti6Sn5
_symmetry_space_group_name_H-M   'P 1'
_cell_length_a   9.30714595
_cell_length_b   9.30714595
_cell_length_c   5.72276152
_cell_angle_alpha   90.00000000
_cell_angle_beta   90.00000000
_cell_angle_gamma   120.00000002
_symmetry_Int_Tables_number   1
_chemical_formula_structural   Ti6Sn5
_chemical_formula_sum   'Ti12 Sn10'
_cell_volume   429.30834326
_cell_formula_units_Z   2
loop_
 _symmetry_equiv_pos_site_id
 _symmetry_equiv_pos_as_xyz
  1  'x, y, z'
loop_
 _atom_site_type_symbol
 _atom_site_label
 _atom_site_symmetry_multiplicity
 _atom_site_fract_x
 _atom_site_fract_y
 _atom_site_fract_z
 _atom_site_occupancy
  Ti  Ti0  1  0.84340683  0.68681366  0.75000000  1
  Ti  Ti1  1  0.15659317  0.84340683  0.25000000  1
  Ti  Ti2  1  0.68681366  0.84340683  0.25000000  1
  Ti  Ti3  1  0.31318634  0.15659317  0.75000000  1
  Ti  Ti4  1  0.84340683  0.15659317  0.75000000  1
  Ti  Ti5  1  0.15659317  0.31318634  0.25000000  1
  Ti  Ti6  1  0.50000000  0.00000000  0.50000000  1
  Ti  Ti7  1  0.50000000  0.50000000  0.00000000  1
  Ti  Ti8  1  0.00000000  0.50000000  0.00000000  1
  Ti  Ti9  1  0.00000000  0.50000000  0.50000000  1
  Ti  Ti10  1  0.50000000  0.00000000  0.00000000  1
  Ti  Ti11  1  0.50000000  0.50000000  0.50000000  1
  Sn  Sn12  1  0.20443577  0.40887155  0.75000000  1
  Sn  Sn13  1  0.79556423  0.20443577  0.25000000  1
  Sn  Sn14  1  0.40887155  0.20443577  0.25000000  1
  Sn  Sn15  1  0.59112845  0.79556423  0.75000000  1
  Sn  Sn16  1  0.20443577  0.79556423  0.75000000  1
  Sn  Sn17  1  0.79556423  0.59112845  0.25000000  1
  Sn  Sn18  1  0.66666667  0.33333333  0.75000000  1
  Sn  Sn19  1  0.33333333  0.66666667  0.25000000  1
  Sn  Sn20  1  0.00000000  0.00000000  0.50000000  1
  Sn  Sn21  1  0.00000000  0.00000000  0.00000000  1
