# generated using pymatgen
data_ZrCuSi
_symmetry_space_group_name_H-M   'P 1'
_cell_length_a   3.94247891
_cell_length_b   6.54258317
_cell_length_c   7.31607859
_cell_angle_alpha   90.00000000
_cell_angle_beta   90.00000000
_cell_angle_gamma   90.00000000
_symmetry_Int_Tables_number   1
_chemical_formula_structural   ZrCuSi
_chemical_formula_sum   'Zr4 Si4 Cu4'
_cell_volume   188.71090309
_cell_formula_units_Z   4
loop_
 _symmetry_equiv_pos_site_id
 _symmetry_equiv_pos_as_xyz
  1  'x, y, z'
loop_
 _atom_site_type_symbol
 _atom_site_label
 _atom_site_symmetry_multiplicity
 _atom_site_fract_x
 _atom_site_fract_y
 _atom_site_fract_z
 _atom_site_occupancy
  Si  Si0  1  0.25000000  0.27966720  0.89892093  1
  Si  Si1  1  0.75000000  0.72033280  0.10107907  1
  Si  Si2  1  0.25000000  0.77966720  0.60107907  1
  Si  Si3  1  0.75000000  0.22033280  0.39892093  1
  Cu  Cu4  1  0.75000000  0.83006285  0.42379752  1
  Cu  Cu5  1  0.25000000  0.16993715  0.57620248  1
  Cu  Cu6  1  0.75000000  0.33006285  0.07620248  1
  Cu  Cu7  1  0.25000000  0.66993715  0.92379752  1
  Zr  Zr8  1  0.25000000  0.50967090  0.30671205  1
  Zr  Zr9  1  0.75000000  0.49032910  0.69328795  1
  Zr  Zr10  1  0.25000000  0.00967090  0.19328795  1
  Zr  Zr11  1  0.75000000  0.99032910  0.80671205  1
