# generated using pymatgen
data_BaGePt
_symmetry_space_group_name_H-M   'P 1'
_cell_length_a   6.85133653
_cell_length_b   6.85133653
_cell_length_c   6.85133653
_cell_angle_alpha   90.00000000
_cell_angle_beta   90.00000000
_cell_angle_gamma   90.00000000
_symmetry_Int_Tables_number   1
_chemical_formula_structural   BaGePt
_chemical_formula_sum   'Ba4 Ge4 Pt4'
_cell_volume   321.60730170
_cell_formula_units_Z   4
loop_
 _symmetry_equiv_pos_site_id
 _symmetry_equiv_pos_as_xyz
  1  'x, y, z'
loop_
 _atom_site_type_symbol
 _atom_site_label
 _atom_site_symmetry_multiplicity
 _atom_site_fract_x
 _atom_site_fract_y
 _atom_site_fract_z
 _atom_site_occupancy
  Ge  Ge0  1  0.34219341  0.65780659  0.15780659  1
  Ge  Ge1  1  0.15780659  0.34219341  0.65780659  1
  Ge  Ge2  1  0.65780659  0.15780659  0.34219341  1
  Ge  Ge3  1  0.84219341  0.84219341  0.84219341  1
  Ba  Ba4  1  0.13590241  0.13590241  0.13590241  1
  Ba  Ba5  1  0.63590241  0.36409759  0.86409759  1
  Ba  Ba6  1  0.36409759  0.86409759  0.63590241  1
  Ba  Ba7  1  0.86409759  0.63590241  0.36409759  1
  Pt  Pt8  1  0.40998080  0.40998080  0.40998080  1
  Pt  Pt9  1  0.09001920  0.59001920  0.90998080  1
  Pt  Pt10  1  0.90998080  0.09001920  0.59001920  1
  Pt  Pt11  1  0.59001920  0.90998080  0.09001920  1
