# generated using pymatgen
data_AlCu
_symmetry_space_group_name_H-M   'P 1'
_cell_length_a   4.09576981
_cell_length_b   6.37770316
_cell_length_c   6.37716401
_cell_angle_alpha   65.71651147
_cell_angle_beta   71.26885449
_cell_angle_gamma   71.27049680
_symmetry_Int_Tables_number   1
_chemical_formula_structural   AlCu
_chemical_formula_sum   'Al5 Cu5'
_cell_volume   140.31041953
_cell_formula_units_Z   5
loop_
 _symmetry_equiv_pos_site_id
 _symmetry_equiv_pos_as_xyz
  1  'x, y, z'
loop_
 _atom_site_type_symbol
 _atom_site_label
 _atom_site_symmetry_multiplicity
 _atom_site_fract_x
 _atom_site_fract_y
 _atom_site_fract_z
 _atom_site_occupancy
  Al  Al0  1  0.50000000  0.50000000  0.50000000  1
  Al  Al1  1  0.84378023  0.46143127  0.85100827  1
  Al  Al2  1  0.15621977  0.53856873  0.14899173  1
  Al  Al3  1  0.62176920  0.99572453  0.76073708  1
  Al  Al4  1  0.37823080  0.00427547  0.23926292  1
  Cu  Cu5  1  0.00000000  0.00000000  0.00000000  1
  Cu  Cu6  1  0.74205322  0.24058401  0.27530954  1
  Cu  Cu7  1  0.25794678  0.75941599  0.72469046  1
  Cu  Cu8  1  0.89104824  0.77186203  0.44604148  1
  Cu  Cu9  1  0.10895176  0.22813797  0.55395852  1
