# generated using pymatgen
data_Ni2B
_symmetry_space_group_name_H-M   'P 1'
_cell_length_a   4.10678283
_cell_length_b   4.10678283
_cell_length_c   4.10678283
_cell_angle_alpha   105.57589965
_cell_angle_beta   105.57589965
_cell_angle_gamma   117.57896665
_symmetry_Int_Tables_number   1
_chemical_formula_structural   Ni2B
_chemical_formula_sum   'Ni4 B2'
_cell_volume   52.50792277
_cell_formula_units_Z   2
loop_
 _symmetry_equiv_pos_site_id
 _symmetry_equiv_pos_as_xyz
  1  'x, y, z'
loop_
 _atom_site_type_symbol
 _atom_site_label
 _atom_site_symmetry_multiplicity
 _atom_site_fract_x
 _atom_site_fract_y
 _atom_site_fract_z
 _atom_site_occupancy
  Ni  Ni0  1  0.82982802  0.32982802  0.15965603  1
  Ni  Ni1  1  0.17017198  0.67017198  0.84034397  1
  Ni  Ni2  1  0.67017198  0.82982802  0.50000000  1
  Ni  Ni3  1  0.32982802  0.17017198  0.50000000  1
  B  B4  1  0.75000000  0.75000000  0.00000000  1
  B  B5  1  0.25000000  0.25000000  0.00000000  1
