# generated using pymatgen
data_FeBiO3
_symmetry_space_group_name_H-M   'P 1'
_cell_length_a   5.64169095
_cell_length_b   5.64169095
_cell_length_c   5.72381358
_cell_angle_alpha   60.47348959
_cell_angle_beta   60.47348959
_cell_angle_gamma   59.99999357
_symmetry_Int_Tables_number   1
_chemical_formula_structural   FeBiO3
_chemical_formula_sum   'Fe2 Bi2 O6'
_cell_volume   129.73597084
_cell_formula_units_Z   2
loop_
 _symmetry_equiv_pos_site_id
 _symmetry_equiv_pos_as_xyz
  1  'x, y, z'
loop_
 _atom_site_type_symbol
 _atom_site_label
 _atom_site_symmetry_multiplicity
 _atom_site_fract_x
 _atom_site_fract_y
 _atom_site_fract_z
 _atom_site_occupancy
  Fe  Fe0  1  0.27964209  0.27964209  0.16107372  1
  Fe  Fe1  1  0.77964209  0.77964209  0.66107372  1
  Bi  Bi2  1  0.50022070  0.50022070  0.49933789  1
  Bi  Bi3  1  0.00022070  0.00022070  0.99933789  1
  O  O4  1  0.96350968  0.11400545  0.35686279  1
  O  O5  1  0.11400545  0.56562207  0.35686279  1
  O  O6  1  0.56562207  0.96350968  0.35686279  1
  O  O7  1  0.46350968  0.06562207  0.85686279  1
  O  O8  1  0.06562207  0.61400545  0.85686279  1
  O  O9  1  0.61400545  0.46350968  0.85686279  1
