# generated using pymatgen
data_InI
_symmetry_space_group_name_H-M   'P 1'
_cell_length_a   4.85879968
_cell_length_b   4.95236859
_cell_length_c   6.93873536
_cell_angle_alpha   90.00000000
_cell_angle_beta   110.49474157
_cell_angle_gamma   90.00000000
_symmetry_Int_Tables_number   1
_chemical_formula_structural   InI
_chemical_formula_sum   'In2 I2'
_cell_volume   156.39569881
_cell_formula_units_Z   2
loop_
 _symmetry_equiv_pos_site_id
 _symmetry_equiv_pos_as_xyz
  1  'x, y, z'
loop_
 _atom_site_type_symbol
 _atom_site_label
 _atom_site_symmetry_multiplicity
 _atom_site_fract_x
 _atom_site_fract_y
 _atom_site_fract_z
 _atom_site_occupancy
  In  In0  1  0.39540971  0.75000000  0.79081942  1
  In  In1  1  0.60459029  0.25000000  0.20918058  1
  I  I2  1  0.14279100  0.75000000  0.28558200  1
  I  I3  1  0.85720900  0.25000000  0.71441800  1
