# generated using pymatgen
data_BiTePt
_symmetry_space_group_name_H-M   'P 1'
_cell_length_a   6.76360612
_cell_length_b   6.76360612
_cell_length_c   6.76360612
_cell_angle_alpha   90.00000000
_cell_angle_beta   90.00000000
_cell_angle_gamma   90.00000000
_symmetry_Int_Tables_number   1
_chemical_formula_structural   BiTePt
_chemical_formula_sum   'Bi4 Te4 Pt4'
_cell_volume   309.41041286
_cell_formula_units_Z   4
loop_
 _symmetry_equiv_pos_site_id
 _symmetry_equiv_pos_as_xyz
  1  'x, y, z'
loop_
 _atom_site_type_symbol
 _atom_site_label
 _atom_site_symmetry_multiplicity
 _atom_site_fract_x
 _atom_site_fract_y
 _atom_site_fract_z
 _atom_site_occupancy
  Pt  Pt0  1  0.00520966  0.00520966  0.00520966  1
  Pt  Pt1  1  0.49479034  0.99479034  0.50520966  1
  Pt  Pt2  1  0.50520966  0.49479034  0.99479034  1
  Pt  Pt3  1  0.99479034  0.50520966  0.49479034  1
  Te  Te4  1  0.62705251  0.62705251  0.62705251  1
  Te  Te5  1  0.87294749  0.37294749  0.12705251  1
  Te  Te6  1  0.12705251  0.87294749  0.37294749  1
  Te  Te7  1  0.37294749  0.12705251  0.87294749  1
  Bi  Bi8  1  0.36802379  0.36802379  0.36802379  1
  Bi  Bi9  1  0.13197621  0.63197621  0.86802379  1
  Bi  Bi10  1  0.86802379  0.13197621  0.63197621  1
  Bi  Bi11  1  0.63197621  0.86802379  0.13197621  1
