# generated using pymatgen
data_LiSn4Ru
_symmetry_space_group_name_H-M   'P 1'
_cell_length_a   6.71599701
_cell_length_b   6.71599701
_cell_length_c   7.38612303
_cell_angle_alpha   117.04152560
_cell_angle_beta   117.04152567
_cell_angle_gamma   89.99999995
_symmetry_Int_Tables_number   1
_chemical_formula_structural   LiSn4Ru
_chemical_formula_sum   'Li2 Sn8 Ru2'
_cell_volume   255.16022652
_cell_formula_units_Z   2
loop_
 _symmetry_equiv_pos_site_id
 _symmetry_equiv_pos_as_xyz
  1  'x, y, z'
loop_
 _atom_site_type_symbol
 _atom_site_label
 _atom_site_symmetry_multiplicity
 _atom_site_fract_x
 _atom_site_fract_y
 _atom_site_fract_z
 _atom_site_occupancy
  Li  Li0  1  0.00000000  0.00000000  0.00000000  1
  Li  Li1  1  0.50000000  0.50000000  0.00000000  1
  Ru  Ru2  1  0.25000000  0.25000000  0.50000000  1
  Ru  Ru3  1  0.75000000  0.75000000  0.50000000  1
  Sn  Sn4  1  0.52268476  0.70256154  0.72524630  1
  Sn  Sn5  1  0.02268476  0.52268476  0.72524630  1
  Sn  Sn6  1  0.70256154  0.20256154  0.72524630  1
  Sn  Sn7  1  0.29743846  0.79743846  0.27475370  1
  Sn  Sn8  1  0.97731524  0.47731524  0.27475370  1
  Sn  Sn9  1  0.47731524  0.29743846  0.27475370  1
  Sn  Sn10  1  0.79743846  0.97731524  0.27475370  1
  Sn  Sn11  1  0.20256154  0.02268476  0.72524630  1
