# generated using pymatgen
data_CaIn2Pd
_symmetry_space_group_name_H-M   'P 1'
_cell_length_a   4.51121827
_cell_length_b   5.70682281
_cell_length_c   7.92415005
_cell_angle_alpha   90.00000000
_cell_angle_beta   90.00000000
_cell_angle_gamma   113.28142938
_symmetry_Int_Tables_number   1
_chemical_formula_structural   CaIn2Pd
_chemical_formula_sum   'Ca2 In4 Pd2'
_cell_volume   187.39384490
_cell_formula_units_Z   2
loop_
 _symmetry_equiv_pos_site_id
 _symmetry_equiv_pos_as_xyz
  1  'x, y, z'
loop_
 _atom_site_type_symbol
 _atom_site_label
 _atom_site_symmetry_multiplicity
 _atom_site_fract_x
 _atom_site_fract_y
 _atom_site_fract_z
 _atom_site_occupancy
  Ca  Ca0  1  0.06546836  0.13093672  0.75000000  1
  Ca  Ca1  1  0.93453164  0.86906328  0.25000000  1
  Pd  Pd2  1  0.78204346  0.56408692  0.75000000  1
  Pd  Pd3  1  0.21795654  0.43591308  0.25000000  1
  In  In4  1  0.35536967  0.71073934  0.94681457  1
  In  In5  1  0.64463033  0.28926066  0.05318543  1
  In  In6  1  0.64463033  0.28926066  0.44681457  1
  In  In7  1  0.35536967  0.71073934  0.55318543  1
