# generated using pymatgen
data_NbGeIr
_symmetry_space_group_name_H-M   'P 1'
_cell_length_a   3.92851735
_cell_length_b   6.52249088
_cell_length_c   7.47706549
_cell_angle_alpha   90.00000000
_cell_angle_beta   90.00000000
_cell_angle_gamma   90.00000000
_symmetry_Int_Tables_number   1
_chemical_formula_structural   NbGeIr
_chemical_formula_sum   'Nb4 Ge4 Ir4'
_cell_volume   191.59022197
_cell_formula_units_Z   4
loop_
 _symmetry_equiv_pos_site_id
 _symmetry_equiv_pos_as_xyz
  1  'x, y, z'
loop_
 _atom_site_type_symbol
 _atom_site_label
 _atom_site_symmetry_multiplicity
 _atom_site_fract_x
 _atom_site_fract_y
 _atom_site_fract_z
 _atom_site_occupancy
  Ge  Ge0  1  0.25000000  0.24058066  0.12334587  1
  Ge  Ge1  1  0.25000000  0.74058066  0.37665413  1
  Ge  Ge2  1  0.75000000  0.75941934  0.87665413  1
  Ge  Ge3  1  0.75000000  0.25941934  0.62334587  1
  Nb  Nb4  1  0.75000000  0.52629843  0.17858898  1
  Nb  Nb5  1  0.25000000  0.97370157  0.67858898  1
  Nb  Nb6  1  0.75000000  0.02629843  0.32141102  1
  Nb  Nb7  1  0.25000000  0.47370157  0.82141102  1
  Ir  Ir8  1  0.25000000  0.85612797  0.06139931  1
  Ir  Ir9  1  0.25000000  0.35612797  0.43860069  1
  Ir  Ir10  1  0.75000000  0.64387203  0.56139931  1
  Ir  Ir11  1  0.75000000  0.14387203  0.93860069  1
