# generated using pymatgen
data_Ca2Si
_symmetry_space_group_name_H-M   'P 1'
_cell_length_a   4.81988679
_cell_length_b   7.61475257
_cell_length_c   9.04721021
_cell_angle_alpha   90.00000000
_cell_angle_beta   90.00000000
_cell_angle_gamma   90.00000000
_symmetry_Int_Tables_number   1
_chemical_formula_structural   Ca2Si
_chemical_formula_sum   'Ca8 Si4'
_cell_volume   332.05292860
_cell_formula_units_Z   4
loop_
 _symmetry_equiv_pos_site_id
 _symmetry_equiv_pos_as_xyz
  1  'x, y, z'
loop_
 _atom_site_type_symbol
 _atom_site_label
 _atom_site_symmetry_multiplicity
 _atom_site_fract_x
 _atom_site_fract_y
 _atom_site_fract_z
 _atom_site_occupancy
  Si  Si0  1  0.25000000  0.75242814  0.39440566  1
  Si  Si1  1  0.75000000  0.24757186  0.60559434  1
  Si  Si2  1  0.25000000  0.25242814  0.10559434  1
  Si  Si3  1  0.75000000  0.74757186  0.89440566  1
  Ca  Ca4  1  0.75000000  0.34616762  0.92594701  1
  Ca  Ca5  1  0.25000000  0.65383238  0.07405299  1
  Ca  Ca6  1  0.75000000  0.84616762  0.57405299  1
  Ca  Ca7  1  0.25000000  0.15383238  0.42594701  1
  Ca  Ca8  1  0.25000000  0.01988806  0.82241663  1
  Ca  Ca9  1  0.75000000  0.98011194  0.17758337  1
  Ca  Ca10  1  0.25000000  0.51988806  0.67758337  1
  Ca  Ca11  1  0.75000000  0.48011194  0.32241663  1
