# generated using pymatgen
data_Al2B2Ru3
_symmetry_space_group_name_H-M   'P 1'
_cell_length_a   2.94262062
_cell_length_b   3.03895221
_cell_length_c   9.04175518
_cell_angle_alpha   99.67452011
_cell_angle_beta   90.00000000
_cell_angle_gamma   90.00000000
_symmetry_Int_Tables_number   1
_chemical_formula_structural   Al2B2Ru3
_chemical_formula_sum   'Al2 B2 Ru3'
_cell_volume   79.70583984
_cell_formula_units_Z   1
loop_
 _symmetry_equiv_pos_site_id
 _symmetry_equiv_pos_as_xyz
  1  'x, y, z'
loop_
 _atom_site_type_symbol
 _atom_site_label
 _atom_site_symmetry_multiplicity
 _atom_site_fract_x
 _atom_site_fract_y
 _atom_site_fract_z
 _atom_site_occupancy
  B  B0  1  0.50000000  0.72235800  0.44471600  1
  B  B1  1  0.50000000  0.27764200  0.55528400  1
  Al  Al2  1  0.50000000  0.57903521  0.15807041  1
  Al  Al3  1  0.50000000  0.42096479  0.84192959  1
  Ru  Ru4  1  0.00000000  0.82504816  0.65009631  1
  Ru  Ru5  1  0.00000000  0.00000000  0.00000000  1
  Ru  Ru6  1  0.00000000  0.17495184  0.34990369  1
