# generated using pymatgen
data_MnSiRh
_symmetry_space_group_name_H-M   'P 1'
_cell_length_a   3.82585420
_cell_length_b   5.99812497
_cell_length_c   7.25677474
_cell_angle_alpha   90.00000000
_cell_angle_beta   90.00000000
_cell_angle_gamma   90.00000000
_symmetry_Int_Tables_number   1
_chemical_formula_structural   MnSiRh
_chemical_formula_sum   'Mn4 Si4 Rh4'
_cell_volume   166.52811557
_cell_formula_units_Z   4
loop_
 _symmetry_equiv_pos_site_id
 _symmetry_equiv_pos_as_xyz
  1  'x, y, z'
loop_
 _atom_site_type_symbol
 _atom_site_label
 _atom_site_symmetry_multiplicity
 _atom_site_fract_x
 _atom_site_fract_y
 _atom_site_fract_z
 _atom_site_occupancy
  Mn  Mn0  1  0.75000000  0.46959742  0.68119116  1
  Mn  Mn1  1  0.25000000  0.03040258  0.18119116  1
  Mn  Mn2  1  0.75000000  0.96959742  0.81880884  1
  Mn  Mn3  1  0.25000000  0.53040258  0.31880884  1
  Si  Si4  1  0.25000000  0.26407782  0.87773952  1
  Si  Si5  1  0.25000000  0.76407782  0.62226048  1
  Si  Si6  1  0.75000000  0.73592218  0.12226048  1
  Si  Si7  1  0.75000000  0.23592218  0.37773952  1
  Rh  Rh8  1  0.25000000  0.66174813  0.93608953  1
  Rh  Rh9  1  0.25000000  0.16174813  0.56391047  1
  Rh  Rh10  1  0.75000000  0.83825187  0.43608953  1
  Rh  Rh11  1  0.75000000  0.33825187  0.06391047  1
