# generated using pymatgen
data_Nb3SBr7
_symmetry_space_group_name_H-M   'P 1'
_cell_length_a   7.20381289
_cell_length_b   7.20381288
_cell_length_c   6.93488391
_cell_angle_alpha   90.00000000
_cell_angle_beta   90.00000000
_cell_angle_gamma   119.99999999
_symmetry_Int_Tables_number   1
_chemical_formula_structural   Nb3SBr7
_chemical_formula_sum   'Nb3 S1 Br7'
_cell_volume   311.66976582
_cell_formula_units_Z   1
loop_
 _symmetry_equiv_pos_site_id
 _symmetry_equiv_pos_as_xyz
  1  'x, y, z'
loop_
 _atom_site_type_symbol
 _atom_site_label
 _atom_site_symmetry_multiplicity
 _atom_site_fract_x
 _atom_site_fract_y
 _atom_site_fract_z
 _atom_site_occupancy
  S  S0  1  0.33333333  0.66666667  0.47273552  1
  Br  Br1  1  -0.00184118  0.49907941  0.97620831  1
  Br  Br2  1  0.50092059  1.00184118  0.97620831  1
  Br  Br3  1  0.00000000  0.00000000  0.02083030  1
  Br  Br4  1  0.33610135  0.16805068  0.43100857  1
  Br  Br5  1  0.83194932  0.16805068  0.43100857  1
  Br  Br6  1  0.83194932  0.66389865  0.43100857  1
  Br  Br7  1  0.50092059  0.49907941  0.97620831  1
  Nb  Nb8  1  0.60308276  0.80154138  0.22322785  1
  Nb  Nb9  1  0.19845862  0.39691724  0.22322785  1
  Nb  Nb10  1  0.19845862  0.80154138  0.22322785  1
