# generated using pymatgen
data_GaCuI4
_symmetry_space_group_name_H-M   'P 1'
_cell_length_a   6.50761837
_cell_length_b   6.50761837
_cell_length_c   7.34799479
_cell_angle_alpha   116.28368744
_cell_angle_beta   116.28368736
_cell_angle_gamma   89.99999994
_symmetry_Int_Tables_number   1
_chemical_formula_structural   GaCuI4
_chemical_formula_sum   'Ga1 Cu1 I4'
_cell_volume   242.60702799
_cell_formula_units_Z   1
loop_
 _symmetry_equiv_pos_site_id
 _symmetry_equiv_pos_as_xyz
  1  'x, y, z'
loop_
 _atom_site_type_symbol
 _atom_site_label
 _atom_site_symmetry_multiplicity
 _atom_site_fract_x
 _atom_site_fract_y
 _atom_site_fract_z
 _atom_site_occupancy
  Cu  Cu0  1  0.50000000  0.50000000  0.00000000  1
  Ga  Ga1  1  0.25000000  0.75000000  0.50000000  1
  I  I2  1  0.60339211  0.63345379  0.75541181  1
  I  I3  1  0.87804199  0.39660789  0.24458819  1
  I  I4  1  0.36654621  0.84798030  0.24458819  1
  I  I5  1  0.15201970  0.12195801  0.75541181  1
