# generated using pymatgen
data_Al2Fe3Si4
_symmetry_space_group_name_H-M   'P 1'
_cell_length_a   3.65801172
_cell_length_b   6.37678756
_cell_length_c   10.08118524
_cell_angle_alpha   90.00000000
_cell_angle_beta   90.00000000
_cell_angle_gamma   106.66781629
_symmetry_Int_Tables_number   1
_chemical_formula_structural   Al2Fe3Si4
_chemical_formula_sum   'Al4 Fe6 Si8'
_cell_volume   225.27696279
_cell_formula_units_Z   2
loop_
 _symmetry_equiv_pos_site_id
 _symmetry_equiv_pos_as_xyz
  1  'x, y, z'
loop_
 _atom_site_type_symbol
 _atom_site_label
 _atom_site_symmetry_multiplicity
 _atom_site_fract_x
 _atom_site_fract_y
 _atom_site_fract_z
 _atom_site_occupancy
  Al  Al0  1  0.05761991  0.11523983  0.10923876  1
  Al  Al1  1  0.94238009  0.88476017  0.89076124  1
  Al  Al2  1  0.94238009  0.88476017  0.60923876  1
  Al  Al3  1  0.05761991  0.11523983  0.39076124  1
  Si  Si4  1  0.31954362  0.63908725  0.51328625  1
  Si  Si5  1  0.68045638  0.36091275  0.48671375  1
  Si  Si6  1  0.54532260  0.09064520  0.75000000  1
  Si  Si7  1  0.45467740  0.90935480  0.25000000  1
  Si  Si8  1  0.74039038  0.48078076  0.75000000  1
  Si  Si9  1  0.25960962  0.51921924  0.25000000  1
  Si  Si10  1  0.31954362  0.63908725  0.98671375  1
  Si  Si11  1  0.68045638  0.36091275  0.01328625  1
  Fe  Fe12  1  0.64771165  0.29542330  0.25000000  1
  Fe  Fe13  1  0.35228835  0.70457670  0.75000000  1
  Fe  Fe14  1  0.14957267  0.29914534  0.62537626  1
  Fe  Fe15  1  0.85042733  0.70085466  0.37462374  1
  Fe  Fe16  1  0.85042733  0.70085466  0.12537626  1
  Fe  Fe17  1  0.14957267  0.29914534  0.87462374  1
