# generated using pymatgen
data_HfMnSi
_symmetry_space_group_name_H-M   'P 1'
_cell_length_a   3.67532868
_cell_length_b   6.49774170
_cell_length_c   7.57687006
_cell_angle_alpha   90.00000000
_cell_angle_beta   90.00000000
_cell_angle_gamma   90.00000000
_symmetry_Int_Tables_number   1
_chemical_formula_structural   HfMnSi
_chemical_formula_sum   'Hf4 Mn4 Si4'
_cell_volume   180.94578295
_cell_formula_units_Z   4
loop_
 _symmetry_equiv_pos_site_id
 _symmetry_equiv_pos_as_xyz
  1  'x, y, z'
loop_
 _atom_site_type_symbol
 _atom_site_label
 _atom_site_symmetry_multiplicity
 _atom_site_fract_x
 _atom_site_fract_y
 _atom_site_fract_z
 _atom_site_occupancy
  Hf  Hf0  1  0.75000000  0.52748930  0.17902670  1
  Hf  Hf1  1  0.75000000  0.02748930  0.32097330  1
  Hf  Hf2  1  0.25000000  0.47251070  0.82097330  1
  Hf  Hf3  1  0.25000000  0.97251070  0.67902670  1
  Mn  Mn4  1  0.75000000  0.14202963  0.93562532  1
  Mn  Mn5  1  0.75000000  0.64202963  0.56437468  1
  Mn  Mn6  1  0.25000000  0.85797037  0.06437468  1
  Mn  Mn7  1  0.25000000  0.35797037  0.43562532  1
  Si  Si8  1  0.75000000  0.77378330  0.87617729  1
  Si  Si9  1  0.75000000  0.27378330  0.62382271  1
  Si  Si10  1  0.25000000  0.22621670  0.12382271  1
  Si  Si11  1  0.25000000  0.72621670  0.37617729  1
