# generated using pymatgen
data_CoReB
_symmetry_space_group_name_H-M   'P 1'
_cell_length_a   3.29159937
_cell_length_b   5.62657279
_cell_length_c   6.50772238
_cell_angle_alpha   90.00000000
_cell_angle_beta   90.00000000
_cell_angle_gamma   90.00000000
_symmetry_Int_Tables_number   1
_chemical_formula_structural   CoReB
_chemical_formula_sum   'Co4 Re4 B4'
_cell_volume   120.52577418
_cell_formula_units_Z   4
loop_
 _symmetry_equiv_pos_site_id
 _symmetry_equiv_pos_as_xyz
  1  'x, y, z'
loop_
 _atom_site_type_symbol
 _atom_site_label
 _atom_site_symmetry_multiplicity
 _atom_site_fract_x
 _atom_site_fract_y
 _atom_site_fract_z
 _atom_site_occupancy
  B  B0  1  0.25000000  0.26840498  0.87534226  1
  B  B1  1  0.75000000  0.73159502  0.12465774  1
  B  B2  1  0.25000000  0.76840498  0.62465774  1
  B  B3  1  0.75000000  0.23159502  0.37534226  1
  Co  Co4  1  0.75000000  0.85452560  0.44433862  1
  Co  Co5  1  0.25000000  0.14547440  0.55566138  1
  Co  Co6  1  0.75000000  0.35452560  0.05566138  1
  Co  Co7  1  0.25000000  0.64547440  0.94433862  1
  Re  Re8  1  0.25000000  0.52889035  0.32819209  1
  Re  Re9  1  0.75000000  0.47110965  0.67180791  1
  Re  Re10  1  0.25000000  0.02889035  0.17180791  1
  Re  Re11  1  0.75000000  0.97110965  0.82819209  1
