# generated using pymatgen
data_Y2ReC2
_symmetry_space_group_name_H-M   'P 1'
_cell_length_a   5.12989981
_cell_length_b   6.59519756
_cell_length_c   9.90978189
_cell_angle_alpha   90.00000000
_cell_angle_beta   90.00000000
_cell_angle_gamma   90.00000000
_symmetry_Int_Tables_number   1
_chemical_formula_structural   Y2ReC2
_chemical_formula_sum   'Y8 Re4 C8'
_cell_volume   335.27470460
_cell_formula_units_Z   4
loop_
 _symmetry_equiv_pos_site_id
 _symmetry_equiv_pos_as_xyz
  1  'x, y, z'
loop_
 _atom_site_type_symbol
 _atom_site_label
 _atom_site_symmetry_multiplicity
 _atom_site_fract_x
 _atom_site_fract_y
 _atom_site_fract_z
 _atom_site_occupancy
  C  C0  1  0.25000000  0.17871171  0.95193566  1
  C  C1  1  0.25000000  0.04488688  0.25932857  1
  C  C2  1  0.75000000  0.95511312  0.74067143  1
  C  C3  1  0.75000000  0.32128829  0.45193566  1
  C  C4  1  0.25000000  0.54488688  0.24067143  1
  C  C5  1  0.25000000  0.67871171  0.54806434  1
  C  C6  1  0.75000000  0.82128829  0.04806434  1
  C  C7  1  0.75000000  0.45511312  0.75932857  1
  Y  Y8  1  0.75000000  0.03205099  0.28300231  1
  Y  Y9  1  0.25000000  0.46794901  0.78300231  1
  Y  Y10  1  0.75000000  0.18063896  0.94430860  1
  Y  Y11  1  0.25000000  0.31936104  0.44430860  1
  Y  Y12  1  0.75000000  0.68063896  0.55569140  1
  Y  Y13  1  0.25000000  0.81936104  0.05569140  1
  Y  Y14  1  0.25000000  0.96794901  0.71699769  1
  Y  Y15  1  0.75000000  0.53205099  0.21699769  1
  Re  Re16  1  0.25000000  0.77811470  0.36492529  1
  Re  Re17  1  0.25000000  0.27811470  0.13507471  1
  Re  Re18  1  0.75000000  0.72188530  0.86492529  1
  Re  Re19  1  0.75000000  0.22188530  0.63507471  1
