# generated using pymatgen
data_Hf5Sn3
_symmetry_space_group_name_H-M   'P 1'
_cell_length_a   5.71618366
_cell_length_b   8.46523676
_cell_length_c   8.46581555
_cell_angle_alpha   119.99774025
_cell_angle_beta   90.00000000
_cell_angle_gamma   90.00000000
_symmetry_Int_Tables_number   1
_chemical_formula_structural   Hf5Sn3
_chemical_formula_sum   'Hf10 Sn6'
_cell_volume   354.77630456
_cell_formula_units_Z   2
loop_
 _symmetry_equiv_pos_site_id
 _symmetry_equiv_pos_as_xyz
  1  'x, y, z'
loop_
 _atom_site_type_symbol
 _atom_site_label
 _atom_site_symmetry_multiplicity
 _atom_site_fract_x
 _atom_site_fract_y
 _atom_site_fract_z
 _atom_site_occupancy
  Hf  Hf0  1  0.74999909  0.24212710  0.00000000  1
  Hf  Hf1  1  0.75000058  0.75786004  0.75785415  1
  Hf  Hf2  1  0.75000058  0.00000589  0.24214585  1
  Hf  Hf3  1  0.24999909  0.75787290  1.00000000  1
  Hf  Hf4  1  0.25000058  0.24213996  0.24214585  1
  Hf  Hf5  1  0.25000058  0.99999411  0.75785415  1
  Hf  Hf6  1  0.50000002  0.33331882  0.66667689  1
  Hf  Hf7  1  0.50000002  0.66664194  0.33332311  1
  Hf  Hf8  1  0.00000002  0.66668118  0.33332311  1
  Hf  Hf9  1  0.00000002  0.33335806  0.66667689  1
  Sn  Sn10  1  0.74999360  0.60663043  0.00000000  1
  Sn  Sn11  1  0.75000306  0.39336795  0.39337192  1
  Sn  Sn12  1  0.75000306  0.99999604  0.60662808  1
  Sn  Sn13  1  0.24999360  0.39336957  1.00000000  1
  Sn  Sn14  1  0.25000306  0.60663205  0.60662808  1
  Sn  Sn15  1  0.25000306  0.00000396  0.39337192  1
