# generated using pymatgen
data_CoMoP
_symmetry_space_group_name_H-M   'P 1'
_cell_length_a   3.74476754
_cell_length_b   5.80852231
_cell_length_c   6.73931380
_cell_angle_alpha   90.00000000
_cell_angle_beta   90.00000000
_cell_angle_gamma   90.00000000
_symmetry_Int_Tables_number   1
_chemical_formula_structural   CoMoP
_chemical_formula_sum   'Co4 Mo4 P4'
_cell_volume   146.59062758
_cell_formula_units_Z   4
loop_
 _symmetry_equiv_pos_site_id
 _symmetry_equiv_pos_as_xyz
  1  'x, y, z'
loop_
 _atom_site_type_symbol
 _atom_site_label
 _atom_site_symmetry_multiplicity
 _atom_site_fract_x
 _atom_site_fract_y
 _atom_site_fract_z
 _atom_site_occupancy
  P  P0  1  0.25000000  0.73382901  0.38061297  1
  P  P1  1  0.25000000  0.23382901  0.11938703  1
  P  P2  1  0.75000000  0.26617099  0.61938703  1
  P  P3  1  0.75000000  0.76617099  0.88061297  1
  Co  Co4  1  0.75000000  0.64029750  0.56718555  1
  Co  Co5  1  0.25000000  0.85970250  0.06718555  1
  Co  Co6  1  0.75000000  0.14029750  0.93281445  1
  Co  Co7  1  0.25000000  0.35970250  0.43281445  1
  Mo  Mo8  1  0.25000000  0.46787509  0.82989343  1
  Mo  Mo9  1  0.25000000  0.96787509  0.67010657  1
  Mo  Mo10  1  0.75000000  0.03212491  0.32989343  1
  Mo  Mo11  1  0.75000000  0.53212491  0.17010657  1
