# generated using pymatgen
data_ZrGe2
_symmetry_space_group_name_H-M   'P 1'
_cell_length_a   3.84870995
_cell_length_b   3.81655243
_cell_length_c   7.82570631
_cell_angle_alpha   90.00000000
_cell_angle_beta   104.23513136
_cell_angle_gamma   90.00000000
_symmetry_Int_Tables_number   1
_chemical_formula_structural   ZrGe2
_chemical_formula_sum   'Zr2 Ge4'
_cell_volume   111.42068496
_cell_formula_units_Z   2
loop_
 _symmetry_equiv_pos_site_id
 _symmetry_equiv_pos_as_xyz
  1  'x, y, z'
loop_
 _atom_site_type_symbol
 _atom_site_label
 _atom_site_symmetry_multiplicity
 _atom_site_fract_x
 _atom_site_fract_y
 _atom_site_fract_z
 _atom_site_occupancy
  Ge  Ge0  1  0.44055516  0.75000000  0.88111032  1
  Ge  Ge1  1  0.55944484  0.25000000  0.11888968  1
  Ge  Ge2  1  0.25041691  0.25000000  0.50083382  1
  Ge  Ge3  1  0.74958309  0.75000000  0.49916618  1
  Zr  Zr4  1  0.10432065  0.75000000  0.20864130  1
  Zr  Zr5  1  0.89567935  0.25000000  0.79135870  1
