# generated using pymatgen
data_ScSiRh
_symmetry_space_group_name_H-M   'P 1'
_cell_length_a   4.07825686
_cell_length_b   6.52991767
_cell_length_c   7.28698987
_cell_angle_alpha   90.00000000
_cell_angle_beta   90.00000000
_cell_angle_gamma   90.00000000
_symmetry_Int_Tables_number   1
_chemical_formula_structural   ScSiRh
_chemical_formula_sum   'Sc4 Si4 Rh4'
_cell_volume   194.05750656
_cell_formula_units_Z   4
loop_
 _symmetry_equiv_pos_site_id
 _symmetry_equiv_pos_as_xyz
  1  'x, y, z'
loop_
 _atom_site_type_symbol
 _atom_site_label
 _atom_site_symmetry_multiplicity
 _atom_site_fract_x
 _atom_site_fract_y
 _atom_site_fract_z
 _atom_site_occupancy
  Si  Si0  1  0.25000000  0.78548879  0.11485104  1
  Si  Si1  1  0.25000000  0.28548879  0.38514896  1
  Si  Si2  1  0.75000000  0.21451121  0.88514896  1
  Si  Si3  1  0.75000000  0.71451121  0.61485104  1
  Sc  Sc4  1  0.75000000  0.49073456  0.18912881  1
  Sc  Sc5  1  0.25000000  0.00926544  0.68912881  1
  Sc  Sc6  1  0.75000000  0.99073456  0.31087119  1
  Sc  Sc7  1  0.25000000  0.50926544  0.81087119  1
  Rh  Rh8  1  0.25000000  0.65673420  0.43703227  1
  Rh  Rh9  1  0.25000000  0.15673420  0.06296773  1
  Rh  Rh10  1  0.75000000  0.84326580  0.93703227  1
  Rh  Rh11  1  0.75000000  0.34326580  0.56296773  1
