# generated using pymatgen
data_Zr2InCo2
_symmetry_space_group_name_H-M   'P 1'
_cell_length_a   3.30239390
_cell_length_b   7.22298805
_cell_length_c   7.22298805
_cell_angle_alpha   90.00000000
_cell_angle_beta   90.00000000
_cell_angle_gamma   90.00000000
_symmetry_Int_Tables_number   1
_chemical_formula_structural   Zr2InCo2
_chemical_formula_sum   'Zr4 In2 Co4'
_cell_volume   172.29102951
_cell_formula_units_Z   2
loop_
 _symmetry_equiv_pos_site_id
 _symmetry_equiv_pos_as_xyz
  1  'x, y, z'
loop_
 _atom_site_type_symbol
 _atom_site_label
 _atom_site_symmetry_multiplicity
 _atom_site_fract_x
 _atom_site_fract_y
 _atom_site_fract_z
 _atom_site_occupancy
  Co  Co0  1  0.00000000  0.12612066  0.37387934  1
  Co  Co1  1  0.00000000  0.62612066  0.12612066  1
  Co  Co2  1  0.00000000  0.87387934  0.62612066  1
  Co  Co3  1  0.00000000  0.37387934  0.87387934  1
  Zr  Zr4  1  0.50000000  0.16881418  0.66881418  1
  Zr  Zr5  1  0.50000000  0.33118582  0.16881418  1
  Zr  Zr6  1  0.50000000  0.66881418  0.83118582  1
  Zr  Zr7  1  0.50000000  0.83118582  0.33118582  1
  In  In8  1  0.00000000  0.00000000  0.00000000  1
  In  In9  1  0.00000000  0.50000000  0.50000000  1
