# generated using pymatgen
data_Cu3Sb
_symmetry_space_group_name_H-M   'P 1'
_cell_length_a   4.34370572
_cell_length_b   4.98254998
_cell_length_c   5.49945002
_cell_angle_alpha   90.00000000
_cell_angle_beta   90.00000000
_cell_angle_gamma   90.00000000
_symmetry_Int_Tables_number   1
_chemical_formula_structural   Cu3Sb
_chemical_formula_sum   'Cu6 Sb2'
_cell_volume   119.02311660
_cell_formula_units_Z   2
loop_
 _symmetry_equiv_pos_site_id
 _symmetry_equiv_pos_as_xyz
  1  'x, y, z'
loop_
 _atom_site_type_symbol
 _atom_site_label
 _atom_site_symmetry_multiplicity
 _atom_site_fract_x
 _atom_site_fract_y
 _atom_site_fract_z
 _atom_site_occupancy
  Cu  Cu0  1  0.75000000  0.29668171  0.25000000  1
  Cu  Cu1  1  0.25000000  0.70331829  0.75000000  1
  Cu  Cu2  1  0.25000000  0.14879719  0.49825444  1
  Cu  Cu3  1  0.75000000  0.85120281  0.50174556  1
  Cu  Cu4  1  0.25000000  0.14879719  1.00174556  1
  Cu  Cu5  1  0.75000000  0.85120281  -0.00174556  1
  Sb  Sb6  1  0.25000000  0.66000810  0.25000000  1
  Sb  Sb7  1  0.75000000  0.33999190  0.75000000  1
