# generated using pymatgen
data_Y2Si4Mo3
_symmetry_space_group_name_H-M   'P 1'
_cell_length_a   6.75995008
_cell_length_b   6.87224614
_cell_length_c   6.93827110
_cell_angle_alpha   90.00000000
_cell_angle_beta   90.00000000
_cell_angle_gamma   108.88061458
_symmetry_Int_Tables_number   1
_chemical_formula_structural   Y2Si4Mo3
_chemical_formula_sum   'Y4 Si8 Mo6'
_cell_volume   304.98189727
_cell_formula_units_Z   2
loop_
 _symmetry_equiv_pos_site_id
 _symmetry_equiv_pos_as_xyz
  1  'x, y, z'
loop_
 _atom_site_type_symbol
 _atom_site_label
 _atom_site_symmetry_multiplicity
 _atom_site_fract_x
 _atom_site_fract_y
 _atom_site_fract_z
 _atom_site_occupancy
  Si  Si0  1  0.86861094  0.09032692  0.45503211  1
  Si  Si1  1  0.37185142  0.50479757  0.63144922  1
  Si  Si2  1  0.12814858  0.49520243  0.13144922  1
  Si  Si3  1  0.63138906  0.90967308  0.95503211  1
  Si  Si4  1  0.87185142  0.50479757  0.86855078  1
  Si  Si5  1  0.62814858  0.49520243  0.36855078  1
  Si  Si6  1  0.36861094  0.09032692  0.04496789  1
  Si  Si7  1  0.13138906  0.90967308  0.54496789  1
  Y  Y8  1  0.06222626  0.19081878  0.83015918  1
  Y  Y9  1  0.56222626  0.19081878  0.66984082  1
  Y  Y10  1  0.93777374  0.80918122  0.16984082  1
  Y  Y11  1  0.43777374  0.80918122  0.33015918  1
  Mo  Mo12  1  0.74894453  0.24960056  0.16266325  1
  Mo  Mo13  1  0.75105547  0.75039944  0.66266325  1
  Mo  Mo14  1  0.25105547  0.75039944  0.83733675  1
  Mo  Mo15  1  0.24894453  0.24960056  0.33733675  1
  Mo  Mo16  1  0.00000000  0.50000000  0.50000000  1
  Mo  Mo17  1  0.50000000  0.50000000  0.00000000  1
