# generated using pymatgen
data_ReO3
_symmetry_space_group_name_H-M   'P 1'
_cell_length_a   6.56527260
_cell_length_b   6.56527260
_cell_length_c   6.56527260
_cell_angle_alpha   109.47122064
_cell_angle_beta   109.47122063
_cell_angle_gamma   109.47122061
_symmetry_Int_Tables_number   1
_chemical_formula_structural   ReO3
_chemical_formula_sum   'Re4 O12'
_cell_volume   217.83938359
_cell_formula_units_Z   4
loop_
 _symmetry_equiv_pos_site_id
 _symmetry_equiv_pos_as_xyz
  1  'x, y, z'
loop_
 _atom_site_type_symbol
 _atom_site_label
 _atom_site_symmetry_multiplicity
 _atom_site_fract_x
 _atom_site_fract_y
 _atom_site_fract_z
 _atom_site_occupancy
  O  O0  1  0.50024015  0.74217108  0.75806906  1
  O  O1  1  0.98410202  0.74217108  0.24193094  1
  O  O2  1  0.01589798  0.25782892  0.75806906  1
  O  O3  1  0.25782892  0.24193094  0.49975985  1
  O  O4  1  0.49975985  0.25782892  0.24193094  1
  O  O5  1  0.25782892  0.75806906  0.01589798  1
  O  O6  1  0.24193094  0.98410202  0.74217108  1
  O  O7  1  0.74217108  0.75806906  0.50024015  1
  O  O8  1  0.75806906  0.01589798  0.25782892  1
  O  O9  1  0.74217108  0.24193094  0.98410202  1
  O  O10  1  0.75806906  0.50024015  0.74217108  1
  O  O11  1  0.24193094  0.49975985  0.25782892  1
  Re  Re12  1  0.50000000  0.00000000  0.00000000  1
  Re  Re13  1  0.00000000  0.00000000  0.50000000  1
  Re  Re14  1  0.00000000  0.50000000  0.00000000  1
  Re  Re15  1  0.50000000  0.50000000  0.50000000  1
