# generated using pymatgen
data_FeSn2
_symmetry_space_group_name_H-M   'P 1'
_cell_length_a   5.33048665
_cell_length_b   5.38041397
_cell_length_c   5.38041397
_cell_angle_alpha   75.79559726
_cell_angle_beta   60.30648468
_cell_angle_gamma   60.30648468
_symmetry_Int_Tables_number   1
_chemical_formula_structural   FeSn2
_chemical_formula_sum   'Fe2 Sn4'
_cell_volume   116.44624070
_cell_formula_units_Z   2
loop_
 _symmetry_equiv_pos_site_id
 _symmetry_equiv_pos_as_xyz
  1  'x, y, z'
loop_
 _atom_site_type_symbol
 _atom_site_label
 _atom_site_symmetry_multiplicity
 _atom_site_fract_x
 _atom_site_fract_y
 _atom_site_fract_z
 _atom_site_occupancy
  Fe  Fe0  1  0.75000000  0.00000000  0.00000000  1
  Fe  Fe1  1  0.25000000  0.00000000  0.00000000  1
  Sn  Sn2  1  0.33858588  0.50000000  0.82282823  1
  Sn  Sn3  1  0.66141412  0.50000000  0.17717177  1
  Sn  Sn4  1  0.83858588  0.82282823  0.50000000  1
  Sn  Sn5  1  0.16141412  0.17717177  0.50000000  1
