# generated using pymatgen
data_HfFeP
_symmetry_space_group_name_H-M   'P 1'
_cell_length_a   3.73401943
_cell_length_b   6.24255715
_cell_length_c   7.02906737
_cell_angle_alpha   90.00000000
_cell_angle_beta   90.00000000
_cell_angle_gamma   90.00000000
_symmetry_Int_Tables_number   1
_chemical_formula_structural   HfFeP
_chemical_formula_sum   'Hf4 Fe4 P4'
_cell_volume   163.84636328
_cell_formula_units_Z   4
loop_
 _symmetry_equiv_pos_site_id
 _symmetry_equiv_pos_as_xyz
  1  'x, y, z'
loop_
 _atom_site_type_symbol
 _atom_site_label
 _atom_site_symmetry_multiplicity
 _atom_site_fract_x
 _atom_site_fract_y
 _atom_site_fract_z
 _atom_site_occupancy
  P  P0  1  0.25000000  0.28085973  0.88527858  1
  P  P1  1  0.75000000  0.71914027  0.11472142  1
  P  P2  1  0.25000000  0.78085973  0.61472142  1
  P  P3  1  0.75000000  0.21914027  0.38527858  1
  Fe  Fe4  1  0.75000000  0.85144693  0.43800986  1
  Fe  Fe5  1  0.25000000  0.14855307  0.56199014  1
  Fe  Fe6  1  0.75000000  0.35144693  0.06199014  1
  Fe  Fe7  1  0.25000000  0.64855307  0.93800986  1
  Hf  Hf8  1  0.25000000  0.51691578  0.31527556  1
  Hf  Hf9  1  0.75000000  0.48308422  0.68472444  1
  Hf  Hf10  1  0.25000000  0.01691578  0.18472444  1
  Hf  Hf11  1  0.75000000  0.98308422  0.81527556  1
