# generated using pymatgen
data_Pb2Au
_symmetry_space_group_name_H-M   'P 1'
_cell_length_a   5.94142999
_cell_length_b   6.01601654
_cell_length_c   6.01601654
_cell_angle_alpha   75.88674207
_cell_angle_beta   60.40928200
_cell_angle_gamma   60.40928200
_symmetry_Int_Tables_number   1
_chemical_formula_structural   Pb2Au
_chemical_formula_sum   'Pb4 Au2'
_cell_volume   162.60094159
_cell_formula_units_Z   2
loop_
 _symmetry_equiv_pos_site_id
 _symmetry_equiv_pos_as_xyz
  1  'x, y, z'
loop_
 _atom_site_type_symbol
 _atom_site_label
 _atom_site_symmetry_multiplicity
 _atom_site_fract_x
 _atom_site_fract_y
 _atom_site_fract_z
 _atom_site_occupancy
  Pb  Pb0  1  0.34058309  0.50000000  0.81883382  1
  Pb  Pb1  1  0.65941691  0.50000000  0.18116618  1
  Pb  Pb2  1  0.84058309  0.81883382  0.50000000  1
  Pb  Pb3  1  0.15941691  0.18116618  0.50000000  1
  Au  Au4  1  0.75000000  -0.00000000  -0.00000000  1
  Au  Au5  1  0.25000000  -0.00000000  -0.00000000  1
