# generated using pymatgen
data_NbNiP
_symmetry_space_group_name_H-M   'P 1'
_cell_length_a   3.59417319
_cell_length_b   6.13302450
_cell_length_c   7.11760972
_cell_angle_alpha   90.00000000
_cell_angle_beta   90.00000000
_cell_angle_gamma   90.00000000
_symmetry_Int_Tables_number   1
_chemical_formula_structural   NbNiP
_chemical_formula_sum   'Nb4 Ni4 P4'
_cell_volume   156.89455458
_cell_formula_units_Z   4
loop_
 _symmetry_equiv_pos_site_id
 _symmetry_equiv_pos_as_xyz
  1  'x, y, z'
loop_
 _atom_site_type_symbol
 _atom_site_label
 _atom_site_symmetry_multiplicity
 _atom_site_fract_x
 _atom_site_fract_y
 _atom_site_fract_z
 _atom_site_occupancy
  P  P0  1  0.25000000  0.78203911  0.62242588  1
  P  P1  1  0.25000000  0.28203911  0.87757412  1
  P  P2  1  0.75000000  0.21796089  0.37757412  1
  P  P3  1  0.75000000  0.71796089  0.12242588  1
  Ni  Ni4  1  0.75000000  0.35073769  0.06696030  1
  Ni  Ni5  1  0.25000000  0.14926231  0.56696030  1
  Ni  Ni6  1  0.75000000  0.85073769  0.43303970  1
  Ni  Ni7  1  0.25000000  0.64926231  0.93303970  1
  Nb  Nb8  1  0.25000000  0.52243463  0.33319652  1
  Nb  Nb9  1  0.25000000  0.02243463  0.16680348  1
  Nb  Nb10  1  0.75000000  0.97756537  0.83319652  1
  Nb  Nb11  1  0.75000000  0.47756537  0.66680348  1
