# generated using pymatgen
data_Sn4Pd
_symmetry_space_group_name_H-M   'P 1'
_cell_length_a   6.52988390
_cell_length_b   6.56164807
_cell_length_c   6.68663401
_cell_angle_alpha   119.38358281
_cell_angle_beta   90.00000000
_cell_angle_gamma   90.00000000
_symmetry_Int_Tables_number   1
_chemical_formula_structural   Sn4Pd
_chemical_formula_sum   'Sn8 Pd2'
_cell_volume   249.64380479
_cell_formula_units_Z   2
loop_
 _symmetry_equiv_pos_site_id
 _symmetry_equiv_pos_as_xyz
  1  'x, y, z'
loop_
 _atom_site_type_symbol
 _atom_site_label
 _atom_site_symmetry_multiplicity
 _atom_site_fract_x
 _atom_site_fract_y
 _atom_site_fract_z
 _atom_site_occupancy
  Sn  Sn0  1  0.32892902  0.95874867  0.25852165  1
  Sn  Sn1  1  0.67107098  0.29977298  0.25852165  1
  Sn  Sn2  1  0.67009782  0.71067391  0.75626892  1
  Sn  Sn3  1  0.32990218  0.04559500  0.75626892  1
  Sn  Sn4  1  0.82990218  0.21067391  0.75626892  1
  Sn  Sn5  1  0.17009782  0.54559500  0.75626892  1
  Sn  Sn6  1  0.17107098  0.45874867  0.25852165  1
  Sn  Sn7  1  0.82892902  0.79977298  0.25852165  1
  Pd  Pd8  1  0.00000000  0.00260943  0.00521887  1
  Pd  Pd9  1  0.50000000  0.50260943  0.00521887  1
