# generated using pymatgen
data_ZrPRu
_symmetry_space_group_name_H-M   'P 1'
_cell_length_a   3.89677131
_cell_length_b   6.47655867
_cell_length_c   7.37843547
_cell_angle_alpha   90.00000000
_cell_angle_beta   90.00000000
_cell_angle_gamma   90.00000000
_symmetry_Int_Tables_number   1
_chemical_formula_structural   ZrPRu
_chemical_formula_sum   'Zr4 P4 Ru4'
_cell_volume   186.21450485
_cell_formula_units_Z   4
loop_
 _symmetry_equiv_pos_site_id
 _symmetry_equiv_pos_as_xyz
  1  'x, y, z'
loop_
 _atom_site_type_symbol
 _atom_site_label
 _atom_site_symmetry_multiplicity
 _atom_site_fract_x
 _atom_site_fract_y
 _atom_site_fract_z
 _atom_site_occupancy
  P  P0  1  0.25000000  0.72433267  0.87850992  1
  P  P1  1  0.25000000  0.22433267  0.62149008  1
  P  P2  1  0.75000000  0.27566733  0.12149008  1
  P  P3  1  0.75000000  0.77566733  0.37850992  1
  Zr  Zr4  1  0.75000000  0.52236196  0.68102268  1
  Zr  Zr5  1  0.25000000  0.97763804  0.18102268  1
  Zr  Zr6  1  0.75000000  0.02236196  0.81897732  1
  Zr  Zr7  1  0.25000000  0.47763804  0.31897732  1
  Ru  Ru8  1  0.25000000  0.34893452  0.93961137  1
  Ru  Ru9  1  0.25000000  0.84893452  0.56038863  1
  Ru  Ru10  1  0.75000000  0.15106548  0.43961137  1
  Ru  Ru11  1  0.75000000  0.65106548  0.06038863  1
