# generated using pymatgen
data_Sb2S2O
_symmetry_space_group_name_H-M   'P 1'
_cell_length_a   6.06055098
_cell_length_b   8.23775983
_cell_length_c   11.07382980
_cell_angle_alpha   100.75981558
_cell_angle_beta   104.23120570
_cell_angle_gamma   109.85931705
_symmetry_Int_Tables_number   1
_chemical_formula_structural   Sb2S2O
_chemical_formula_sum   'Sb8 S8 O4'
_cell_volume   481.38137869
_cell_formula_units_Z   4
loop_
 _symmetry_equiv_pos_site_id
 _symmetry_equiv_pos_as_xyz
  1  'x, y, z'
loop_
 _atom_site_type_symbol
 _atom_site_label
 _atom_site_symmetry_multiplicity
 _atom_site_fract_x
 _atom_site_fract_y
 _atom_site_fract_z
 _atom_site_occupancy
  O  O0  1  0.92838422  0.58702065  0.42971911  1
  O  O1  1  0.07161578  0.41297935  0.57028089  1
  O  O2  1  0.97201141  0.10305175  0.43349141  1
  O  O3  1  0.02798859  0.89694825  0.56650859  1
  S  S4  1  0.76902094  0.47764400  0.08570500  1
  S  S5  1  0.23097906  0.52235600  0.91429500  1
  S  S6  1  0.76820263  0.94938761  0.08727620  1
  S  S7  1  0.23179737  0.05061239  0.91272380  1
  S  S8  1  0.48910509  0.80955207  0.70895833  1
  S  S9  1  0.51089491  0.19044793  0.29104167  1
  S  S10  1  0.51083175  0.29035408  0.69950268  1
  S  S11  1  0.48916825  0.70964592  0.30049732  1
  Sb  Sb12  1  0.34125408  0.35394553  0.08970496  1
  Sb  Sb13  1  0.65874592  0.64605447  0.91029504  1
  Sb  Sb14  1  0.37541194  0.87357034  0.13702870  1
  Sb  Sb15  1  0.62458806  0.12642966  0.86297130  1
  Sb  Sb16  1  0.98100705  0.33852561  0.37152673  1
  Sb  Sb17  1  0.01899295  0.66147439  0.62847327  1
  Sb  Sb18  1  0.95585731  0.83079942  0.36867912  1
  Sb  Sb19  1  0.04414269  0.16920058  0.63132088  1
