# generated using pymatgen
data_Mn5C2
_symmetry_space_group_name_H-M   'P 1'
_cell_length_a   4.47446973
_cell_length_b   4.99743260
_cell_length_c   6.22786209
_cell_angle_alpha   96.92080589
_cell_angle_beta   111.05291487
_cell_angle_gamma   89.99999998
_symmetry_Int_Tables_number   1
_chemical_formula_structural   Mn5C2
_chemical_formula_sum   'Mn10 C4'
_cell_volume   128.87673009
_cell_formula_units_Z   2
loop_
 _symmetry_equiv_pos_site_id
 _symmetry_equiv_pos_as_xyz
  1  'x, y, z'
loop_
 _atom_site_type_symbol
 _atom_site_label
 _atom_site_symmetry_multiplicity
 _atom_site_fract_x
 _atom_site_fract_y
 _atom_site_fract_z
 _atom_site_occupancy
  C  C0  1  0.56983623  0.42138392  0.77352066  1
  C  C1  1  0.79631558  0.07861608  0.22647934  1
  C  C2  1  0.43016377  0.57861608  0.22647934  1
  C  C3  1  0.20368442  0.92138392  0.77352066  1
  Mn  Mn4  1  0.37390188  0.69346044  0.56716852  1
  Mn  Mn5  1  0.80673336  0.80653956  0.43283148  1
  Mn  Mn6  1  0.62609812  0.30653956  0.43283148  1
  Mn  Mn7  1  0.19326664  0.19346044  0.56716852  1
  Mn  Mn8  1  0.56939191  0.75000000  0.00000000  1
  Mn  Mn9  1  0.43060809  0.25000000  0.00000000  1
  Mn  Mn10  1  0.81086091  0.08077366  0.79908930  1
  Mn  Mn11  1  0.01177161  0.41922634  0.20091070  1
  Mn  Mn12  1  0.18913909  0.91922634  0.20091070  1
  Mn  Mn13  1  0.98822839  0.58077366  0.79908930  1
