# generated using pymatgen
data_ZrAs2
_symmetry_space_group_name_H-M   'P 1'
_cell_length_a   3.72672304
_cell_length_b   6.86200803
_cell_length_c   9.14417372
_cell_angle_alpha   90.00000000
_cell_angle_beta   90.00000000
_cell_angle_gamma   90.00000000
_symmetry_Int_Tables_number   1
_chemical_formula_structural   ZrAs2
_chemical_formula_sum   'Zr4 As8'
_cell_volume   233.84215704
_cell_formula_units_Z   4
loop_
 _symmetry_equiv_pos_site_id
 _symmetry_equiv_pos_as_xyz
  1  'x, y, z'
loop_
 _atom_site_type_symbol
 _atom_site_label
 _atom_site_symmetry_multiplicity
 _atom_site_fract_x
 _atom_site_fract_y
 _atom_site_fract_z
 _atom_site_occupancy
  As  As0  1  0.25000000  0.41699287  0.35262546  1
  As  As1  1  0.75000000  0.58300713  0.64737454  1
  As  As2  1  0.25000000  0.91699287  0.14737454  1
  As  As3  1  0.75000000  0.08300713  0.85262546  1
  As  As4  1  0.75000000  0.12032562  0.45774497  1
  As  As5  1  0.25000000  0.87967438  0.54225503  1
  As  As6  1  0.75000000  0.62032562  0.04225503  1
  As  As7  1  0.25000000  0.37967438  0.95774497  1
  Zr  Zr8  1  0.25000000  0.27267660  0.66186892  1
  Zr  Zr9  1  0.75000000  0.72732340  0.33813108  1
  Zr  Zr10  1  0.25000000  0.77267660  0.83813108  1
  Zr  Zr11  1  0.75000000  0.22732340  0.16186892  1
