# generated using pymatgen
data_Sb2S3
_symmetry_space_group_name_H-M   'P 1'
_cell_length_a   3.87034010
_cell_length_b   11.23080103
_cell_length_c   12.13389725
_cell_angle_alpha   90.00000000
_cell_angle_beta   90.00000000
_cell_angle_gamma   90.00000000
_symmetry_Int_Tables_number   1
_chemical_formula_structural   Sb2S3
_chemical_formula_sum   'Sb8 S12'
_cell_volume   527.42434937
_cell_formula_units_Z   4
loop_
 _symmetry_equiv_pos_site_id
 _symmetry_equiv_pos_as_xyz
  1  'x, y, z'
loop_
 _atom_site_type_symbol
 _atom_site_label
 _atom_site_symmetry_multiplicity
 _atom_site_fract_x
 _atom_site_fract_y
 _atom_site_fract_z
 _atom_site_occupancy
  S  S0  1  0.75000000  0.05716490  0.87589634  1
  S  S1  1  0.25000000  0.94283510  0.12410366  1
  S  S2  1  0.25000000  0.55716490  0.62410366  1
  S  S3  1  0.75000000  0.44283510  0.37589634  1
  S  S4  1  0.75000000  0.37510678  0.04529098  1
  S  S5  1  0.25000000  0.62489322  0.95470902  1
  S  S6  1  0.25000000  0.87510678  0.45470902  1
  S  S7  1  0.75000000  0.12489322  0.54529098  1
  S  S8  1  0.25000000  0.18793992  0.30080024  1
  S  S9  1  0.75000000  0.81206008  0.69919976  1
  S  S10  1  0.75000000  0.68793992  0.19919976  1
  S  S11  1  0.25000000  0.31206008  0.80080024  1
  Sb  Sb12  1  0.75000000  0.46659643  0.85905422  1
  Sb  Sb13  1  0.25000000  0.53340357  0.14094578  1
  Sb  Sb14  1  0.25000000  0.96659643  0.64094578  1
  Sb  Sb15  1  0.75000000  0.03340357  0.35905422  1
  Sb  Sb16  1  0.25000000  0.17181044  0.96603783  1
  Sb  Sb17  1  0.75000000  0.82818956  0.03396217  1
  Sb  Sb18  1  0.75000000  0.67181044  0.53396217  1
  Sb  Sb19  1  0.25000000  0.32818956  0.46603783  1
