# generated using pymatgen
data_Ba(FeS2)2
_symmetry_space_group_name_H-M   'P 1'
_cell_length_a   5.08585765
_cell_length_b   5.97786828
_cell_length_c   5.97786829
_cell_angle_alpha   79.57448445
_cell_angle_beta   64.82461197
_cell_angle_gamma   64.82461201
_symmetry_Int_Tables_number   1
_chemical_formula_structural   Ba(FeS2)2
_chemical_formula_sum   'Ba1 Fe2 S4'
_cell_volume   148.85502908
_cell_formula_units_Z   1
loop_
 _symmetry_equiv_pos_site_id
 _symmetry_equiv_pos_as_xyz
  1  'x, y, z'
loop_
 _atom_site_type_symbol
 _atom_site_label
 _atom_site_symmetry_multiplicity
 _atom_site_fract_x
 _atom_site_fract_y
 _atom_site_fract_z
 _atom_site_occupancy
  S  S0  1  0.38603608  0.42066199  0.80726584  1
  S  S1  1  0.19330192  0.19273416  0.42066199  1
  S  S2  1  0.80669808  0.80726584  0.57933801  1
  S  S3  1  0.61396392  0.57933801  0.19273416  1
  Fe  Fe4  1  0.75000000  0.50000000  0.50000000  1
  Fe  Fe5  1  0.25000000  0.50000000  0.50000000  1
  Ba  Ba6  1  0.00000000  0.00000000  0.00000000  1
