# generated using pymatgen
data_TiSi2
_symmetry_space_group_name_H-M   'P 1'
_cell_length_a   4.77905377
_cell_length_b   4.77905377
_cell_length_c   4.91218716
_cell_angle_alpha   104.25461444
_cell_angle_beta   104.25461444
_cell_angle_gamma   119.59186606
_symmetry_Int_Tables_number   1
_chemical_formula_structural   TiSi2
_chemical_formula_sum   'Ti2 Si4'
_cell_volume   85.07342335
_cell_formula_units_Z   2
loop_
 _symmetry_equiv_pos_site_id
 _symmetry_equiv_pos_as_xyz
  1  'x, y, z'
loop_
 _atom_site_type_symbol
 _atom_site_label
 _atom_site_symmetry_multiplicity
 _atom_site_fract_x
 _atom_site_fract_y
 _atom_site_fract_z
 _atom_site_occupancy
  Ti  Ti0  1  0.62500000  0.87500000  0.75000000  1
  Ti  Ti1  1  0.37500000  0.12500000  0.25000000  1
  Si  Si2  1  0.96166606  0.53833394  0.75000000  1
  Si  Si3  1  0.28833394  0.21166606  0.75000000  1
  Si  Si4  1  0.03833394  0.46166606  0.25000000  1
  Si  Si5  1  0.71166606  0.78833394  0.25000000  1
