# generated using pymatgen
data_ZrSbPd
_symmetry_space_group_name_H-M   'P 1'
_cell_length_a   4.34686881
_cell_length_b   6.88171970
_cell_length_c   8.04462504
_cell_angle_alpha   90.00000000
_cell_angle_beta   90.00000000
_cell_angle_gamma   90.00000000
_symmetry_Int_Tables_number   1
_chemical_formula_structural   ZrSbPd
_chemical_formula_sum   'Zr4 Sb4 Pd4'
_cell_volume   240.64637223
_cell_formula_units_Z   4
loop_
 _symmetry_equiv_pos_site_id
 _symmetry_equiv_pos_as_xyz
  1  'x, y, z'
loop_
 _atom_site_type_symbol
 _atom_site_label
 _atom_site_symmetry_multiplicity
 _atom_site_fract_x
 _atom_site_fract_y
 _atom_site_fract_z
 _atom_site_occupancy
  Zr  Zr0  1  0.75000000  0.48085540  0.30608105  1
  Zr  Zr1  1  0.25000000  0.51914460  0.69391895  1
  Zr  Zr2  1  0.75000000  0.98085540  0.19391895  1
  Zr  Zr3  1  0.25000000  0.01914460  0.80608105  1
  Pd  Pd4  1  0.75000000  0.33702978  0.92763871  1
  Pd  Pd5  1  0.25000000  0.66297022  0.07236129  1
  Pd  Pd6  1  0.75000000  0.83702978  0.57236129  1
  Pd  Pd7  1  0.25000000  0.16297022  0.42763871  1
  Sb  Sb8  1  0.75000000  0.73399443  0.89183710  1
  Sb  Sb9  1  0.25000000  0.26600557  0.10816290  1
  Sb  Sb10  1  0.75000000  0.23399443  0.60816290  1
  Sb  Sb11  1  0.25000000  0.76600557  0.39183710  1
