# generated using pymatgen
data_CrN
_symmetry_space_group_name_H-M   'P 1'
_cell_length_a   2.94438287
_cell_length_b   2.94587487
_cell_length_c   4.15021530
_cell_angle_alpha   90.00000000
_cell_angle_beta   90.00000000
_cell_angle_gamma   90.00000000
_symmetry_Int_Tables_number   1
_chemical_formula_structural   CrN
_chemical_formula_sum   'Cr2 N2'
_cell_volume   35.99806901
_cell_formula_units_Z   2
loop_
 _symmetry_equiv_pos_site_id
 _symmetry_equiv_pos_as_xyz
  1  'x, y, z'
loop_
 _atom_site_type_symbol
 _atom_site_label
 _atom_site_symmetry_multiplicity
 _atom_site_fract_x
 _atom_site_fract_y
 _atom_site_fract_z
 _atom_site_occupancy
  N  N0  1  0.74681077  0.75000000  0.25000000  1
  N  N1  1  0.25318923  0.25000000  0.75000000  1
  Cr  Cr2  1  0.75432029  0.75000000  0.75000000  1
  Cr  Cr3  1  0.24567971  0.25000000  0.25000000  1
