# generated using pymatgen
data_BaTiO3
_symmetry_space_group_name_H-M   'P 1'
_cell_length_a   5.70318109
_cell_length_b   5.70318104
_cell_length_c   5.71104899
_cell_angle_alpha   119.95443692
_cell_angle_beta   119.95444251
_cell_angle_gamma   90.00000002
_symmetry_Int_Tables_number   1
_chemical_formula_structural   BaTiO3
_chemical_formula_sum   'Ba2 Ti2 O6'
_cell_volume   131.53225283
_cell_formula_units_Z   2
loop_
 _symmetry_equiv_pos_site_id
 _symmetry_equiv_pos_as_xyz
  1  'x, y, z'
loop_
 _atom_site_type_symbol
 _atom_site_label
 _atom_site_symmetry_multiplicity
 _atom_site_fract_x
 _atom_site_fract_y
 _atom_site_fract_z
 _atom_site_occupancy
  Ba  Ba0  1  0.75000000  0.25000000  0.50000000  1
  Ba  Ba1  1  0.25000000  0.75000000  0.50000000  1
  Ti  Ti2  1  0.50000000  0.50000000  -0.00000000  1
  Ti  Ti3  1  0.00000000  0.00000000  0.00000000  1
  O  O4  1  0.75054372  0.25054373  0.00000000  1
  O  O5  1  0.74945628  0.75054372  1.00000000  1
  O  O6  1  0.25054372  0.24945628  0.00000000  1
  O  O7  1  0.24945628  0.74945627  1.00000000  1
  O  O8  1  0.25000000  0.25000000  0.50000000  1
  O  O9  1  0.75000000  0.75000000  0.50000000  1
