# generated using pymatgen
data_NbAs
_symmetry_space_group_name_H-M   'P 1'
_cell_length_a   3.48467865
_cell_length_b   3.48467865
_cell_length_c   6.37610035
_cell_angle_alpha   105.85840580
_cell_angle_beta   105.85840573
_cell_angle_gamma   90.00000001
_symmetry_Int_Tables_number   1
_chemical_formula_structural   NbAs
_chemical_formula_sum   'Nb2 As2'
_cell_volume   71.40980136
_cell_formula_units_Z   2
loop_
 _symmetry_equiv_pos_site_id
 _symmetry_equiv_pos_as_xyz
  1  'x, y, z'
loop_
 _atom_site_type_symbol
 _atom_site_label
 _atom_site_symmetry_multiplicity
 _atom_site_fract_x
 _atom_site_fract_y
 _atom_site_fract_z
 _atom_site_occupancy
  As  As0  1  0.16765711  0.66765711  0.33531421  1
  As  As1  1  0.41765711  0.41765711  0.83531421  1
  Nb  Nb2  1  0.74934289  0.24934289  0.49868579  1
  Nb  Nb3  1  0.99934289  0.99934289  0.99868579  1
