# generated using pymatgen
data_BIrPd
_symmetry_space_group_name_H-M   'P 1'
_cell_length_a   5.55093157
_cell_length_b   5.55093156
_cell_length_c   6.12248769
_cell_angle_alpha   109.26977372
_cell_angle_beta   109.26977378
_cell_angle_gamma   105.78368771
_symmetry_Int_Tables_number   1
_chemical_formula_structural   BIrPd
_chemical_formula_sum   'B4 Pd4 Ir4'
_cell_volume   151.97165956
_cell_formula_units_Z   4
loop_
 _symmetry_equiv_pos_site_id
 _symmetry_equiv_pos_as_xyz
  1  'x, y, z'
loop_
 _atom_site_type_symbol
 _atom_site_label
 _atom_site_symmetry_multiplicity
 _atom_site_fract_x
 _atom_site_fract_y
 _atom_site_fract_z
 _atom_site_occupancy
  B  B0  1  0.05394506  0.93530568  0.53052686  1
  B  B1  1  0.68530568  0.30394506  0.03052686  1
  B  B2  1  0.40477882  0.52341820  0.46947314  1
  B  B3  1  0.27341820  0.65477882  0.96947314  1
  Pd  Pd4  1  0.93934302  0.11242276  0.23096150  1
  Pd  Pd5  1  0.45838152  0.13146126  0.26903850  1
  Pd  Pd6  1  0.86242276  0.18934302  0.73096150  1
  Pd  Pd7  1  0.88146126  0.70838152  0.76903850  1
  Ir  Ir8  1  0.10289102  0.63044404  0.23526321  1
  Ir  Ir9  1  0.38044404  0.35289102  0.73526321  1
  Ir  Ir10  1  0.61762780  0.64518083  0.26473679  1
  Ir  Ir11  1  0.39518083  0.86762780  0.76473679  1
