# generated using pymatgen
data_MgCu2O3
_symmetry_space_group_name_H-M   'P 1'
_cell_length_a   3.23389485
_cell_length_b   4.06185880
_cell_length_c   9.45428974
_cell_angle_alpha   90.00000000
_cell_angle_beta   90.00000000
_cell_angle_gamma   90.00000000
_symmetry_Int_Tables_number   1
_chemical_formula_structural   MgCu2O3
_chemical_formula_sum   'Mg2 Cu4 O6'
_cell_volume   124.18799762
_cell_formula_units_Z   2
loop_
 _symmetry_equiv_pos_site_id
 _symmetry_equiv_pos_as_xyz
  1  'x, y, z'
loop_
 _atom_site_type_symbol
 _atom_site_label
 _atom_site_symmetry_multiplicity
 _atom_site_fract_x
 _atom_site_fract_y
 _atom_site_fract_z
 _atom_site_occupancy
  O  O0  1  0.10961389  0.75000000  0.59687935  1
  O  O1  1  0.10961389  0.75000000  0.90312065  1
  O  O2  1  0.89038611  0.25000000  0.40312065  1
  O  O3  1  0.49231942  0.75000000  0.25000000  1
  O  O4  1  0.50768058  0.25000000  0.75000000  1
  O  O5  1  0.89038611  0.25000000  0.09687935  1
  Mg  Mg6  1  0.61814395  0.75000000  0.75000000  1
  Mg  Mg7  1  0.38185605  0.25000000  0.25000000  1
  Cu  Cu8  1  0.83747551  0.75000000  0.08621074  1
  Cu  Cu9  1  0.83747551  0.75000000  0.41378926  1
  Cu  Cu10  1  0.16252449  0.25000000  0.91378926  1
  Cu  Cu11  1  0.16252449  0.25000000  0.58621074  1
