# generated using pymatgen
data_SnPd
_symmetry_space_group_name_H-M   'P 1'
_cell_length_a   3.90942452
_cell_length_b   6.33605568
_cell_length_c   6.46066229
_cell_angle_alpha   90.00000000
_cell_angle_beta   90.00000000
_cell_angle_gamma   90.00000000
_symmetry_Int_Tables_number   1
_chemical_formula_structural   SnPd
_chemical_formula_sum   'Sn4 Pd4'
_cell_volume   160.03274622
_cell_formula_units_Z   4
loop_
 _symmetry_equiv_pos_site_id
 _symmetry_equiv_pos_as_xyz
  1  'x, y, z'
loop_
 _atom_site_type_symbol
 _atom_site_label
 _atom_site_symmetry_multiplicity
 _atom_site_fract_x
 _atom_site_fract_y
 _atom_site_fract_z
 _atom_site_occupancy
  Sn  Sn0  1  0.75000000  0.30799237  0.09135064  1
  Sn  Sn1  1  0.75000000  0.80799237  0.40864936  1
  Sn  Sn2  1  0.25000000  0.69200763  0.90864936  1
  Sn  Sn3  1  0.25000000  0.19200763  0.59135064  1
  Pd  Pd4  1  0.75000000  0.48990782  0.68730597  1
  Pd  Pd5  1  0.75000000  0.98990782  0.81269403  1
  Pd  Pd6  1  0.25000000  0.51009218  0.31269403  1
  Pd  Pd7  1  0.25000000  0.01009218  0.18730597  1
