# generated using pymatgen
data_GaCuCl4
_symmetry_space_group_name_H-M   'P 1'
_cell_length_a   5.57895263
_cell_length_b   5.57895263
_cell_length_c   10.23143447
_cell_angle_alpha   90.00000000
_cell_angle_beta   90.00000000
_cell_angle_gamma   90.00000000
_symmetry_Int_Tables_number   1
_chemical_formula_structural   GaCuCl4
_chemical_formula_sum   'Ga2 Cu2 Cl8'
_cell_volume   318.45045581
_cell_formula_units_Z   2
loop_
 _symmetry_equiv_pos_site_id
 _symmetry_equiv_pos_as_xyz
  1  'x, y, z'
loop_
 _atom_site_type_symbol
 _atom_site_label
 _atom_site_symmetry_multiplicity
 _atom_site_fract_x
 _atom_site_fract_y
 _atom_site_fract_z
 _atom_site_occupancy
  Cl  Cl0  1  0.77181505  0.73236412  0.62540121  1
  Cl  Cl1  1  0.73236412  0.22818495  0.37459879  1
  Cl  Cl2  1  0.26763588  0.77181505  0.37459879  1
  Cl  Cl3  1  0.77181505  0.26763588  0.87459879  1
  Cl  Cl4  1  0.22818495  0.73236412  0.87459879  1
  Cl  Cl5  1  0.22818495  0.26763588  0.62540121  1
  Cl  Cl6  1  0.26763588  0.22818495  0.12540121  1
  Cl  Cl7  1  0.73236412  0.77181505  0.12540121  1
  Cu  Cu8  1  0.00000000  0.00000000  0.00000000  1
  Cu  Cu9  1  0.00000000  0.00000000  0.50000000  1
  Ga  Ga10  1  0.50000000  0.00000000  0.25000000  1
  Ga  Ga11  1  0.00000000  0.50000000  0.75000000  1
