# generated using pymatgen
data_YSiPd2
_symmetry_space_group_name_H-M   'P 1'
_cell_length_a   5.53618140
_cell_length_b   7.00969435
_cell_length_c   7.36814571
_cell_angle_alpha   90.00000000
_cell_angle_beta   90.00000000
_cell_angle_gamma   90.00000000
_symmetry_Int_Tables_number   1
_chemical_formula_structural   YSiPd2
_chemical_formula_sum   'Y4 Si4 Pd8'
_cell_volume   285.93518465
_cell_formula_units_Z   4
loop_
 _symmetry_equiv_pos_site_id
 _symmetry_equiv_pos_as_xyz
  1  'x, y, z'
loop_
 _atom_site_type_symbol
 _atom_site_label
 _atom_site_symmetry_multiplicity
 _atom_site_fract_x
 _atom_site_fract_y
 _atom_site_fract_z
 _atom_site_occupancy
  Si  Si0  1  0.35952685  0.75000000  0.12205737  1
  Si  Si1  1  0.64047315  0.25000000  0.87794263  1
  Si  Si2  1  0.85952685  0.25000000  0.37794263  1
  Si  Si3  1  0.14047315  0.75000000  0.62205737  1
  Y  Y4  1  0.13953300  0.25000000  0.02837212  1
  Y  Y5  1  0.36046700  0.25000000  0.52837212  1
  Y  Y6  1  0.63953300  0.75000000  0.47162788  1
  Y  Y7  1  0.86046700  0.75000000  0.97162788  1
  Pd  Pd8  1  0.09484021  0.55213560  0.32253452  1
  Pd  Pd9  1  0.09484021  0.94786440  0.32253452  1
  Pd  Pd10  1  0.40515979  0.55213560  0.82253452  1
  Pd  Pd11  1  0.90515979  0.44786440  0.67746548  1
  Pd  Pd12  1  0.59484021  0.44786440  0.17746548  1
  Pd  Pd13  1  0.90515979  0.05213560  0.67746548  1
  Pd  Pd14  1  0.40515979  0.94786440  0.82253452  1
  Pd  Pd15  1  0.59484021  0.05213560  0.17746548  1
