# generated using pymatgen
data_Ti2PbC
_symmetry_space_group_name_H-M   'P 1'
_cell_length_a   3.23004624
_cell_length_b   3.23004624
_cell_length_c   13.99347095
_cell_angle_alpha   90.00000000
_cell_angle_beta   90.00000000
_cell_angle_gamma   119.99999999
_symmetry_Int_Tables_number   1
_chemical_formula_structural   Ti2PbC
_chemical_formula_sum   'Ti4 Pb2 C2'
_cell_volume   126.43681915
_cell_formula_units_Z   2
loop_
 _symmetry_equiv_pos_site_id
 _symmetry_equiv_pos_as_xyz
  1  'x, y, z'
loop_
 _atom_site_type_symbol
 _atom_site_label
 _atom_site_symmetry_multiplicity
 _atom_site_fract_x
 _atom_site_fract_y
 _atom_site_fract_z
 _atom_site_occupancy
  C  C0  1  0.00000000  0.00000000  0.50000000  1
  C  C1  1  0.00000000  0.00000000  0.00000000  1
  Ti  Ti2  1  0.66666667  0.33333333  0.57738291  1
  Ti  Ti3  1  0.33333333  0.66666667  0.42261709  1
  Ti  Ti4  1  0.33333333  0.66666667  0.07738291  1
  Ti  Ti5  1  0.66666667  0.33333333  0.92261709  1
  Pb  Pb6  1  0.66666667  0.33333333  0.25000000  1
  Pb  Pb7  1  0.33333333  0.66666667  0.75000000  1
