# generated using pymatgen
data_V3Se4
_symmetry_space_group_name_H-M   'P 1'
_cell_length_a   3.40486577
_cell_length_b   6.18646281
_cell_length_c   6.89520634
_cell_angle_alpha   115.08849848
_cell_angle_beta   104.29420094
_cell_angle_gamma   90.00000000
_symmetry_Int_Tables_number   1
_chemical_formula_structural   V3Se4
_chemical_formula_sum   'V3 Se4'
_cell_volume   126.55571959
_cell_formula_units_Z   1
loop_
 _symmetry_equiv_pos_site_id
 _symmetry_equiv_pos_as_xyz
  1  'x, y, z'
loop_
 _atom_site_type_symbol
 _atom_site_label
 _atom_site_symmetry_multiplicity
 _atom_site_fract_x
 _atom_site_fract_y
 _atom_site_fract_z
 _atom_site_occupancy
  V  V0  1  0.25523997  0.32317330  0.51047994  1
  V  V1  1  0.74476003  0.67682670  0.48952006  1
  V  V2  1  0.00000000  0.00000000  0.00000000  1
  Se  Se3  1  0.64123470  0.97985084  0.28246940  1
  Se  Se4  1  0.35876530  0.02014916  0.71753060  1
  Se  Se5  1  0.10721072  0.45242193  0.21442144  1
  Se  Se6  1  0.89278928  0.54757807  0.78557856  1
