# generated using pymatgen
data_SiPd3
_symmetry_space_group_name_H-M   'P 1'
_cell_length_a   5.34204347
_cell_length_b   5.85991311
_cell_length_c   7.63112393
_cell_angle_alpha   90.00000000
_cell_angle_beta   90.00000000
_cell_angle_gamma   90.00000000
_symmetry_Int_Tables_number   1
_chemical_formula_structural   SiPd3
_chemical_formula_sum   'Si4 Pd12'
_cell_volume   238.88402101
_cell_formula_units_Z   4
loop_
 _symmetry_equiv_pos_site_id
 _symmetry_equiv_pos_as_xyz
  1  'x, y, z'
loop_
 _atom_site_type_symbol
 _atom_site_label
 _atom_site_symmetry_multiplicity
 _atom_site_fract_x
 _atom_site_fract_y
 _atom_site_fract_z
 _atom_site_occupancy
  Si  Si0  1  0.53028690  0.10405235  0.75000000  1
  Si  Si1  1  0.03028690  0.39594765  0.25000000  1
  Si  Si2  1  0.96971310  0.60405235  0.75000000  1
  Si  Si3  1  0.46971310  0.89594765  0.25000000  1
  Pd  Pd4  1  0.67809370  0.82035013  0.94823659  1
  Pd  Pd5  1  0.17809370  0.67964987  0.05176341  1
  Pd  Pd6  1  0.82190630  0.32035013  0.55176341  1
  Pd  Pd7  1  0.32190630  0.17964987  0.44823659  1
  Pd  Pd8  1  0.90257253  0.00673102  0.25000000  1
  Pd  Pd9  1  0.40257253  0.49326898  0.75000000  1
  Pd  Pd10  1  0.59742747  0.50673102  0.25000000  1
  Pd  Pd11  1  0.09742747  0.99326898  0.75000000  1
  Pd  Pd12  1  0.67809370  0.82035013  0.55176341  1
  Pd  Pd13  1  0.17809370  0.67964987  0.44823659  1
  Pd  Pd14  1  0.82190630  0.32035013  0.94823659  1
  Pd  Pd15  1  0.32190630  0.17964987  0.05176341  1
