# generated using pymatgen
data_SrInPt
_symmetry_space_group_name_H-M   'P 1'
_cell_length_a   4.56854611
_cell_length_b   7.66153596
_cell_length_c   8.62549222
_cell_angle_alpha   90.00000000
_cell_angle_beta   90.00000000
_cell_angle_gamma   90.00000000
_symmetry_Int_Tables_number   1
_chemical_formula_structural   SrInPt
_chemical_formula_sum   'Sr4 In4 Pt4'
_cell_volume   301.91017137
_cell_formula_units_Z   4
loop_
 _symmetry_equiv_pos_site_id
 _symmetry_equiv_pos_as_xyz
  1  'x, y, z'
loop_
 _atom_site_type_symbol
 _atom_site_label
 _atom_site_symmetry_multiplicity
 _atom_site_fract_x
 _atom_site_fract_y
 _atom_site_fract_z
 _atom_site_occupancy
  Sr  Sr0  1  0.75000000  0.96965197  0.32137162  1
  Sr  Sr1  1  0.25000000  0.03034803  0.67862838  1
  Sr  Sr2  1  0.75000000  0.46965197  0.17862838  1
  Sr  Sr3  1  0.25000000  0.53034803  0.82137162  1
  In  In4  1  0.75000000  0.35258619  0.56470856  1
  In  In5  1  0.25000000  0.14741381  0.06470856  1
  In  In6  1  0.25000000  0.64741381  0.43529144  1
  In  In7  1  0.75000000  0.85258619  0.93529144  1
  Pt  Pt8  1  0.25000000  0.77769350  0.12053534  1
  Pt  Pt9  1  0.25000000  0.27769350  0.37946466  1
  Pt  Pt10  1  0.75000000  0.72230650  0.62053534  1
  Pt  Pt11  1  0.75000000  0.22230650  0.87946466  1
