# generated using pymatgen
data_Pd(SCl3)2
_symmetry_space_group_name_H-M   'P 1'
_cell_length_a   4.75511352
_cell_length_b   6.98201828
_cell_length_c   8.41418294
_cell_angle_alpha   104.37270913
_cell_angle_beta   97.31229119
_cell_angle_gamma   91.85321961
_symmetry_Int_Tables_number   1
_chemical_formula_structural   Pd(SCl3)2
_chemical_formula_sum   'Pd1 S2 Cl6'
_cell_volume   267.81428814
_cell_formula_units_Z   1
loop_
 _symmetry_equiv_pos_site_id
 _symmetry_equiv_pos_as_xyz
  1  'x, y, z'
loop_
 _atom_site_type_symbol
 _atom_site_label
 _atom_site_symmetry_multiplicity
 _atom_site_fract_x
 _atom_site_fract_y
 _atom_site_fract_z
 _atom_site_occupancy
  S  S0  1  0.29379136  0.22595134  0.20659958  1
  S  S1  1  0.70620864  0.77404866  0.79340042  1
  Cl  Cl2  1  0.74552534  0.81784120  0.56702445  1
  Cl  Cl3  1  0.28762593  0.12877928  0.84131570  1
  Cl  Cl4  1  0.71237407  0.87122072  0.15868430  1
  Cl  Cl5  1  0.08994121  0.48176031  0.21556630  1
  Cl  Cl6  1  0.91005879  0.51823969  0.78443370  1
  Cl  Cl7  1  0.25447466  0.18215880  0.43297555  1
  Pd  Pd8  1  0.00000000  0.00000000  0.00000000  1
