# generated using pymatgen
data_Li7Si2
_symmetry_space_group_name_H-M   'P 1'
_cell_length_a   4.46517553
_cell_length_b   8.04298590
_cell_length_c   14.93754200
_cell_angle_alpha   90.00000000
_cell_angle_beta   90.00000000
_cell_angle_gamma   90.00000000
_symmetry_Int_Tables_number   1
_chemical_formula_structural   Li7Si2
_chemical_formula_sum   'Li28 Si8'
_cell_volume   536.45708180
_cell_formula_units_Z   4
loop_
 _symmetry_equiv_pos_site_id
 _symmetry_equiv_pos_as_xyz
  1  'x, y, z'
loop_
 _atom_site_type_symbol
 _atom_site_label
 _atom_site_symmetry_multiplicity
 _atom_site_fract_x
 _atom_site_fract_y
 _atom_site_fract_z
 _atom_site_occupancy
  Li  Li0  1  0.00000000  0.00000000  0.00000000  1
  Li  Li1  1  0.00000000  0.50000000  0.50000000  1
  Li  Li2  1  0.50000000  0.50000000  0.00000000  1
  Li  Li3  1  0.50000000  0.00000000  0.50000000  1
  Li  Li4  1  0.50000000  0.12046658  0.35612257  1
  Li  Li5  1  0.50000000  0.87953342  0.64387743  1
  Li  Li6  1  0.50000000  0.62046658  0.14387743  1
  Li  Li7  1  0.50000000  0.37953342  0.85612257  1
  Li  Li8  1  0.50000000  0.23369792  0.10286747  1
  Li  Li9  1  0.50000000  0.76630208  0.89713253  1
  Li  Li10  1  0.50000000  0.73369792  0.39713253  1
  Li  Li11  1  0.50000000  0.26630208  0.60286747  1
  Li  Li12  1  0.50000000  0.41428175  0.25802090  1
  Li  Li13  1  0.50000000  0.58571825  0.74197910  1
  Li  Li14  1  0.50000000  0.91428175  0.24197910  1
  Li  Li15  1  0.50000000  0.08571825  0.75802090  1
  Li  Li16  1  0.00000000  0.32649749  0.98779893  1
  Li  Li17  1  0.00000000  0.67350251  0.01220107  1
  Li  Li18  1  0.00000000  0.82649749  0.51220107  1
  Li  Li19  1  0.00000000  0.17350251  0.48779893  1
  Li  Li20  1  0.00000000  0.11631206  0.18975831  1
  Li  Li21  1  0.00000000  0.88368794  0.81024169  1
  Li  Li22  1  0.00000000  0.61631206  0.31024169  1
  Li  Li23  1  0.00000000  0.38368794  0.68975831  1
  Li  Li24  1  0.00000000  0.29613469  0.33383132  1
  Li  Li25  1  0.00000000  0.70386531  0.66616868  1
  Li  Li26  1  0.00000000  0.79613469  0.16616868  1
  Li  Li27  1  0.00000000  0.20386531  0.83383132  1
  Si  Si28  1  0.50000000  0.39812717  0.43664383  1
  Si  Si29  1  0.50000000  0.60187283  0.56335617  1
  Si  Si30  1  0.50000000  0.89812717  0.06335617  1
  Si  Si31  1  0.50000000  0.10187283  0.93664383  1
  Si  Si32  1  0.00000000  0.44265771  0.15391728  1
  Si  Si33  1  0.00000000  0.55734229  0.84608272  1
  Si  Si34  1  0.00000000  0.94265771  0.34608272  1
  Si  Si35  1  0.00000000  0.05734229  0.65391728  1
