# generated using pymatgen
data_NbCrP
_symmetry_space_group_name_H-M   'P 1'
_cell_length_a   3.54315220
_cell_length_b   6.28715115
_cell_length_c   7.40678242
_cell_angle_alpha   90.00000000
_cell_angle_beta   90.00000000
_cell_angle_gamma   90.00000000
_symmetry_Int_Tables_number   1
_chemical_formula_structural   NbCrP
_chemical_formula_sum   'Nb4 Cr4 P4'
_cell_volume   164.99595482
_cell_formula_units_Z   4
loop_
 _symmetry_equiv_pos_site_id
 _symmetry_equiv_pos_as_xyz
  1  'x, y, z'
loop_
 _atom_site_type_symbol
 _atom_site_label
 _atom_site_symmetry_multiplicity
 _atom_site_fract_x
 _atom_site_fract_y
 _atom_site_fract_z
 _atom_site_occupancy
  P  P0  1  0.25000000  0.26999356  0.86852528  1
  P  P1  1  0.25000000  0.76999356  0.63147472  1
  P  P2  1  0.75000000  0.73000644  0.13147472  1
  P  P3  1  0.75000000  0.23000644  0.36852528  1
  Cr  Cr4  1  0.75000000  0.35736474  0.05955300  1
  Cr  Cr5  1  0.25000000  0.14263526  0.55955300  1
  Cr  Cr6  1  0.75000000  0.85736474  0.44044700  1
  Cr  Cr7  1  0.25000000  0.64263526  0.94044700  1
  Nb  Nb8  1  0.25000000  0.53124094  0.32760072  1
  Nb  Nb9  1  0.25000000  0.03124094  0.17239928  1
  Nb  Nb10  1  0.75000000  0.96875906  0.82760072  1
  Nb  Nb11  1  0.75000000  0.46875906  0.67239928  1
