# generated using pymatgen
data_HfCoSn
_symmetry_space_group_name_H-M   'P 1'
_cell_length_a   7.11017740
_cell_length_b   7.11017741
_cell_length_c   7.16404481
_cell_angle_alpha   90.00000000
_cell_angle_beta   90.00000000
_cell_angle_gamma   119.99999998
_symmetry_Int_Tables_number   1
_chemical_formula_structural   HfCoSn
_chemical_formula_sum   'Hf6 Co6 Sn6'
_cell_volume   313.65325503
_cell_formula_units_Z   6
loop_
 _symmetry_equiv_pos_site_id
 _symmetry_equiv_pos_as_xyz
  1  'x, y, z'
loop_
 _atom_site_type_symbol
 _atom_site_label
 _atom_site_symmetry_multiplicity
 _atom_site_fract_x
 _atom_site_fract_y
 _atom_site_fract_z
 _atom_site_occupancy
  Co  Co0  1  0.33333333  0.66666667  0.46644515  1
  Co  Co1  1  0.66666667  0.33333333  0.53355485  1
  Co  Co2  1  0.33333333  0.66666667  0.03355485  1
  Co  Co3  1  0.00000000  0.00000000  0.75000000  1
  Co  Co4  1  0.00000000  0.00000000  0.25000000  1
  Co  Co5  1  0.66666667  0.33333333  0.96644515  1
  Sn  Sn6  1  0.26730849  0.26730849  0.50000000  1
  Sn  Sn7  1  0.00000000  0.73269151  0.50000000  1
  Sn  Sn8  1  0.00000000  0.73269151  0.00000000  1
  Sn  Sn9  1  0.73269151  0.00000000  0.50000000  1
  Sn  Sn10  1  0.73269151  0.00000000  0.00000000  1
  Sn  Sn11  1  0.26730849  0.26730849  0.00000000  1
  Hf  Hf12  1  0.00779518  0.40151260  0.75000000  1
  Hf  Hf13  1  0.59848740  0.60628258  0.75000000  1
  Hf  Hf14  1  0.39371742  0.99220482  0.75000000  1
  Hf  Hf15  1  0.99220482  0.39371742  0.25000000  1
  Hf  Hf16  1  0.60628258  0.59848740  0.25000000  1
  Hf  Hf17  1  0.40151260  0.00779518  0.25000000  1
