# generated using pymatgen
data_SbRh
_symmetry_space_group_name_H-M   'P 1'
_cell_length_a   3.91651646
_cell_length_b   6.05694853
_cell_length_c   6.42334932
_cell_angle_alpha   90.00000000
_cell_angle_beta   90.00000000
_cell_angle_gamma   90.00000000
_symmetry_Int_Tables_number   1
_chemical_formula_structural   SbRh
_chemical_formula_sum   'Sb4 Rh4'
_cell_volume   152.37558294
_cell_formula_units_Z   4
loop_
 _symmetry_equiv_pos_site_id
 _symmetry_equiv_pos_as_xyz
  1  'x, y, z'
loop_
 _atom_site_type_symbol
 _atom_site_label
 _atom_site_symmetry_multiplicity
 _atom_site_fract_x
 _atom_site_fract_y
 _atom_site_fract_z
 _atom_site_occupancy
  Rh  Rh0  1  0.75000000  0.99346682  0.80571699  1
  Rh  Rh1  1  0.25000000  0.00653318  0.19428301  1
  Rh  Rh2  1  0.75000000  0.49346682  0.69428301  1
  Rh  Rh3  1  0.25000000  0.50653318  0.30571699  1
  Sb  Sb4  1  0.75000000  0.80342156  0.40846546  1
  Sb  Sb5  1  0.25000000  0.19657844  0.59153454  1
  Sb  Sb6  1  0.75000000  0.30342156  0.09153454  1
  Sb  Sb7  1  0.25000000  0.69657844  0.90846546  1
