# generated using pymatgen
data_ZrMnSi
_symmetry_space_group_name_H-M   'P 1'
_cell_length_a   3.70211143
_cell_length_b   6.59407100
_cell_length_c   7.64770836
_cell_angle_alpha   90.00000000
_cell_angle_beta   90.00000000
_cell_angle_gamma   90.00000000
_symmetry_Int_Tables_number   1
_chemical_formula_structural   ZrMnSi
_chemical_formula_sum   'Zr4 Mn4 Si4'
_cell_volume   186.69574651
_cell_formula_units_Z   4
loop_
 _symmetry_equiv_pos_site_id
 _symmetry_equiv_pos_as_xyz
  1  'x, y, z'
loop_
 _atom_site_type_symbol
 _atom_site_label
 _atom_site_symmetry_multiplicity
 _atom_site_fract_x
 _atom_site_fract_y
 _atom_site_fract_z
 _atom_site_occupancy
  Zr  Zr0  1  0.25000000  0.52620321  0.31988601  1
  Zr  Zr1  1  0.25000000  0.02620321  0.18011399  1
  Zr  Zr2  1  0.75000000  0.97379679  0.81988601  1
  Zr  Zr3  1  0.75000000  0.47379679  0.68011399  1
  Mn  Mn4  1  0.75000000  0.36108915  0.06482244  1
  Mn  Mn5  1  0.25000000  0.13891085  0.56482244  1
  Mn  Mn6  1  0.75000000  0.86108915  0.43517756  1
  Mn  Mn7  1  0.25000000  0.63891085  0.93517756  1
  Si  Si8  1  0.25000000  0.27370969  0.87866225  1
  Si  Si9  1  0.25000000  0.77370969  0.62133775  1
  Si  Si10  1  0.75000000  0.72629031  0.12133775  1
  Si  Si11  1  0.75000000  0.22629031  0.37866225  1
