# generated using pymatgen
data_TiZn16
_symmetry_space_group_name_H-M   'P 1'
_cell_length_a   6.92975416
_cell_length_b   6.92975416
_cell_length_c   11.67330701
_cell_angle_alpha   90.00000000
_cell_angle_beta   90.00000000
_cell_angle_gamma   112.42701942
_symmetry_Int_Tables_number   1
_chemical_formula_structural   TiZn16
_chemical_formula_sum   'Ti2 Zn32'
_cell_volume   518.17163166
_cell_formula_units_Z   2
loop_
 _symmetry_equiv_pos_site_id
 _symmetry_equiv_pos_as_xyz
  1  'x, y, z'
loop_
 _atom_site_type_symbol
 _atom_site_label
 _atom_site_symmetry_multiplicity
 _atom_site_fract_x
 _atom_site_fract_y
 _atom_site_fract_z
 _atom_site_occupancy
  Ti  Ti0  1  0.04710403  0.95289597  0.75000000  1
  Ti  Ti1  1  0.95289597  0.04710403  0.25000000  1
  Zn  Zn2  1  0.35337668  0.98291150  0.93075208  1
  Zn  Zn3  1  0.64662332  0.01708850  0.43075208  1
  Zn  Zn4  1  0.98291150  0.35337668  0.06924792  1
  Zn  Zn5  1  0.01708850  0.64662332  0.56924792  1
  Zn  Zn6  1  0.64662332  0.01708850  0.06924792  1
  Zn  Zn7  1  0.35337668  0.98291150  0.56924792  1
  Zn  Zn8  1  0.01708850  0.64662332  0.93075208  1
  Zn  Zn9  1  0.98291150  0.35337668  0.43075208  1
  Zn  Zn10  1  0.65272737  0.75865356  0.86496750  1
  Zn  Zn11  1  0.34727263  0.24134644  0.36496750  1
  Zn  Zn12  1  0.75865356  0.65272737  0.13503250  1
  Zn  Zn13  1  0.24134644  0.34727263  0.63503250  1
  Zn  Zn14  1  0.34727263  0.24134644  0.13503250  1
  Zn  Zn15  1  0.65272737  0.75865356  0.63503250  1
  Zn  Zn16  1  0.24134644  0.34727263  0.86496750  1
  Zn  Zn17  1  0.75865356  0.65272737  0.36496750  1
  Zn  Zn18  1  0.47721210  0.19206702  0.75000000  1
  Zn  Zn19  1  0.52278790  0.80793298  0.25000000  1
  Zn  Zn20  1  0.19206702  0.47721210  0.25000000  1
  Zn  Zn21  1  0.80793298  0.52278790  0.75000000  1
  Zn  Zn22  1  0.17597407  0.82402593  0.35913101  1
  Zn  Zn23  1  0.82402593  0.17597407  0.85913101  1
  Zn  Zn24  1  0.82402593  0.17597407  0.64086899  1
  Zn  Zn25  1  0.17597407  0.82402593  0.14086899  1
  Zn  Zn26  1  0.62067398  0.37932602  0.96923792  1
  Zn  Zn27  1  0.37932602  0.62067398  0.46923792  1
  Zn  Zn28  1  0.37932602  0.62067398  0.03076208  1
  Zn  Zn29  1  0.62067398  0.37932602  0.53076208  1
  Zn  Zn30  1  0.28875867  0.71124133  0.75000000  1
  Zn  Zn31  1  0.71124133  0.28875867  0.25000000  1
  Zn  Zn32  1  0.00000000  0.00000000  0.00000000  1
  Zn  Zn33  1  0.00000000  0.00000000  0.50000000  1
