# generated using pymatgen
data_Li2Sn2Au
_symmetry_space_group_name_H-M   'P 1'
_cell_length_a   4.63487438
_cell_length_b   4.63487438
_cell_length_c   10.47604333
_cell_angle_alpha   102.78028952
_cell_angle_beta   102.78028952
_cell_angle_gamma   90.00000000
_symmetry_Int_Tables_number   1
_chemical_formula_structural   Li2Sn2Au
_chemical_formula_sum   'Li4 Sn4 Au2'
_cell_volume   213.75077000
_cell_formula_units_Z   2
loop_
 _symmetry_equiv_pos_site_id
 _symmetry_equiv_pos_as_xyz
  1  'x, y, z'
loop_
 _atom_site_type_symbol
 _atom_site_label
 _atom_site_symmetry_multiplicity
 _atom_site_fract_x
 _atom_site_fract_y
 _atom_site_fract_z
 _atom_site_occupancy
  Li  Li0  1  0.19939993  0.44939993  0.39879986  1
  Li  Li1  1  0.44939993  0.19939993  0.89879986  1
  Li  Li2  1  0.80060007  0.55060007  0.60120014  1
  Li  Li3  1  0.55060007  0.80060007  0.10120014  1
  Sn  Sn4  1  0.70222194  0.95222194  0.40444388  1
  Sn  Sn5  1  0.95222194  0.70222194  0.90444388  1
  Sn  Sn6  1  0.29777806  0.04777806  0.59555612  1
  Sn  Sn7  1  0.04777806  0.29777806  0.09555612  1
  Au  Au8  1  0.62500000  0.37500000  0.25000000  1
  Au  Au9  1  0.37500000  0.62500000  0.75000000  1
