# generated using pymatgen
data_NbCuTe2
_symmetry_space_group_name_H-M   'P 1'
_cell_length_a   3.84085469
_cell_length_b   6.79691670
_cell_length_c   7.32760989
_cell_angle_alpha   107.74979745
_cell_angle_beta   90.00000000
_cell_angle_gamma   90.00000000
_symmetry_Int_Tables_number   1
_chemical_formula_structural   NbCuTe2
_chemical_formula_sum   'Nb2 Cu2 Te4'
_cell_volume   182.18815083
_cell_formula_units_Z   2
loop_
 _symmetry_equiv_pos_site_id
 _symmetry_equiv_pos_as_xyz
  1  'x, y, z'
loop_
 _atom_site_type_symbol
 _atom_site_label
 _atom_site_symmetry_multiplicity
 _atom_site_fract_x
 _atom_site_fract_y
 _atom_site_fract_z
 _atom_site_occupancy
  Cu  Cu0  1  0.75000000  0.60777642  0.59105517  1
  Cu  Cu1  1  0.25000000  0.39222358  0.40894483  1
  Nb  Nb2  1  0.75000000  0.82548617  0.00562058  1
  Nb  Nb3  1  0.25000000  0.17451383  0.99437942  1
  Te  Te4  1  0.25000000  0.99001224  0.28771706  1
  Te  Te5  1  0.25000000  0.50492095  0.79385998  1
  Te  Te6  1  0.75000000  0.00998776  0.71228294  1
  Te  Te7  1  0.75000000  0.49507905  0.20614002  1
