# generated using pymatgen
data_Zr2Ni
_symmetry_space_group_name_H-M   'P 1'
_cell_length_a   5.26256983
_cell_length_b   5.30008718
_cell_length_c   5.30008718
_cell_angle_alpha   75.73108733
_cell_angle_beta   60.23388426
_cell_angle_gamma   60.23388426
_symmetry_Int_Tables_number   1
_chemical_formula_structural   Zr2Ni
_chemical_formula_sum   'Zr4 Ni2'
_cell_volume   111.39420406
_cell_formula_units_Z   2
loop_
 _symmetry_equiv_pos_site_id
 _symmetry_equiv_pos_as_xyz
  1  'x, y, z'
loop_
 _atom_site_type_symbol
 _atom_site_label
 _atom_site_symmetry_multiplicity
 _atom_site_fract_x
 _atom_site_fract_y
 _atom_site_fract_z
 _atom_site_occupancy
  Zr  Zr0  1  0.33693990  0.50000000  0.82612020  1
  Zr  Zr1  1  0.66306010  0.50000000  0.17387980  1
  Zr  Zr2  1  0.83693990  0.82612020  0.50000000  1
  Zr  Zr3  1  0.16306010  0.17387980  0.50000000  1
  Ni  Ni4  1  0.75000000  0.00000000  0.00000000  1
  Ni  Ni5  1  0.25000000  0.00000000  0.00000000  1
