# generated using pymatgen
data_NaNbO3
_symmetry_space_group_name_H-M   'P 1'
_cell_length_a   8.01774239
_cell_length_b   8.01815349
_cell_length_c   8.01803300
_cell_angle_alpha   90.00000000
_cell_angle_beta   90.00000000
_cell_angle_gamma   90.00000000
_symmetry_Int_Tables_number   1
_chemical_formula_structural   NaNbO3
_chemical_formula_sum   'Na8 Nb8 O24'
_cell_volume   515.45920930
_cell_formula_units_Z   8
loop_
 _symmetry_equiv_pos_site_id
 _symmetry_equiv_pos_as_xyz
  1  'x, y, z'
loop_
 _atom_site_type_symbol
 _atom_site_label
 _atom_site_symmetry_multiplicity
 _atom_site_fract_x
 _atom_site_fract_y
 _atom_site_fract_z
 _atom_site_occupancy
  Na  Na0  1  0.75000000  0.75000000  0.24951095  1
  Na  Na1  1  0.75000000  0.25000000  0.75168667  1
  Na  Na2  1  0.25000000  0.75000000  0.24831333  1
  Na  Na3  1  0.75000000  0.25000000  0.25115838  1
  Na  Na4  1  0.25000000  0.25000000  0.75048905  1
  Na  Na5  1  0.25000000  0.75000000  0.74884162  1
  Na  Na6  1  0.75000000  0.75000000  0.75028042  1
  Na  Na7  1  0.25000000  0.25000000  0.24971958  1
  Nb  Nb8  1  0.50000000  0.00000000  0.50000000  1
  Nb  Nb9  1  0.50000000  0.50000000  0.00000000  1
  Nb  Nb10  1  0.00000000  0.00000000  0.00000000  1
  Nb  Nb11  1  0.00000000  0.50000000  0.00000000  1
  Nb  Nb12  1  0.50000000  0.00000000  0.00000000  1
  Nb  Nb13  1  0.00000000  0.50000000  0.50000000  1
  Nb  Nb14  1  0.50000000  0.50000000  0.50000000  1
  Nb  Nb15  1  0.00000000  0.00000000  0.50000000  1
  O  O16  1  0.75000000  0.50234167  0.50236102  1
  O  O17  1  0.75000000  0.00237141  0.99676586  1
  O  O18  1  0.00278819  0.49803854  0.75004104  1
  O  O19  1  0.00235541  0.75000000  0.50259419  1
  O  O20  1  0.50235541  0.25000000  0.49740581  1
  O  O21  1  0.99761794  0.75000000  0.99864152  1
  O  O22  1  0.00238206  0.25000000  0.00135848  1
  O  O23  1  0.49721181  0.49803854  0.75004104  1
  O  O24  1  0.25000000  0.50237141  0.00323414  1
  O  O25  1  0.25000000  0.00234167  0.49763898  1
  O  O26  1  0.75000000  0.99765833  0.50236102  1
  O  O27  1  0.50238206  0.75000000  0.99864152  1
  O  O28  1  0.00278819  0.00196146  0.75004104  1
  O  O29  1  0.25000000  0.49765833  0.49763898  1
  O  O30  1  0.49764459  0.75000000  0.50259419  1
  O  O31  1  0.50278819  0.50196146  0.24995896  1
  O  O32  1  0.75000000  0.49762859  0.99676586  1
  O  O33  1  0.99721181  0.50196146  0.24995896  1
  O  O34  1  0.49761794  0.25000000  0.00135848  1
  O  O35  1  0.99721181  0.99803854  0.24995896  1
  O  O36  1  0.25000000  0.99762859  0.00323414  1
  O  O37  1  0.50278819  0.99803854  0.24995896  1
  O  O38  1  0.99764459  0.25000000  0.49740581  1
  O  O39  1  0.49721181  0.00196146  0.75004104  1
