# generated using pymatgen
data_SnAu5
_symmetry_space_group_name_H-M   'P 1'
_cell_length_a   5.73343098
_cell_length_b   5.73343098
_cell_length_c   5.73343097
_cell_angle_alpha   53.97657246
_cell_angle_beta   53.97657247
_cell_angle_gamma   53.97657247
_symmetry_Int_Tables_number   1
_chemical_formula_structural   SnAu5
_chemical_formula_sum   'Sn1 Au5'
_cell_volume   114.51734826
_cell_formula_units_Z   1
loop_
 _symmetry_equiv_pos_site_id
 _symmetry_equiv_pos_as_xyz
  1  'x, y, z'
loop_
 _atom_site_type_symbol
 _atom_site_label
 _atom_site_symmetry_multiplicity
 _atom_site_fract_x
 _atom_site_fract_y
 _atom_site_fract_z
 _atom_site_occupancy
  Sn  Sn0  1  0.00003068  0.00003068  0.00003068  1
  Au  Au1  1  0.67004454  0.67004454  0.67004454  1
  Au  Au2  1  0.50001096  0.17248467  0.82754784  1
  Au  Au3  1  0.82754784  0.50001096  0.17248467  1
  Au  Au4  1  0.17248467  0.82754784  0.50001096  1
  Au  Au5  1  0.32998131  0.32998131  0.32998131  1
