# generated using pymatgen
data_LiBO2
_symmetry_space_group_name_H-M   'P 1'
_cell_length_a   4.39675703
_cell_length_b   5.75794431
_cell_length_c   6.70814713
_cell_angle_alpha   110.62271133
_cell_angle_beta   90.00000000
_cell_angle_gamma   90.00000000
_symmetry_Int_Tables_number   1
_chemical_formula_structural   LiBO2
_chemical_formula_sum   'Li4 B4 O8'
_cell_volume   158.94293666
_cell_formula_units_Z   4
loop_
 _symmetry_equiv_pos_site_id
 _symmetry_equiv_pos_as_xyz
  1  'x, y, z'
loop_
 _atom_site_type_symbol
 _atom_site_label
 _atom_site_symmetry_multiplicity
 _atom_site_fract_x
 _atom_site_fract_y
 _atom_site_fract_z
 _atom_site_occupancy
  Li  Li0  1  0.78215009  0.56050765  0.64602449  1
  Li  Li1  1  0.28215009  0.43949235  0.85397551  1
  Li  Li2  1  0.21784991  0.43949235  0.35397551  1
  Li  Li3  1  0.71784991  0.56050765  0.14602449  1
  B  B4  1  0.32079493  0.87354999  0.72174798  1
  B  B5  1  0.82079493  0.12645001  0.77825202  1
  B  B6  1  0.67920507  0.12645001  0.27825202  1
  B  B7  1  0.17920507  0.87354999  0.22174798  1
  O  O8  1  0.63948229  0.91397606  0.73451237  1
  O  O9  1  0.13948229  0.08602394  0.76548763  1
  O  O10  1  0.36051771  0.08602394  0.26548763  1
  O  O11  1  0.86051771  0.91397606  0.23451237  1
  O  O12  1  0.22389045  0.63978901  0.66833360  1
  O  O13  1  0.72389045  0.36021099  0.83166640  1
  O  O14  1  0.77610955  0.36021099  0.33166640  1
  O  O15  1  0.27610955  0.63978901  0.16833360  1
