# generated using pymatgen
data_Ba2ZrS4
_symmetry_space_group_name_H-M   'P 1'
_cell_length_a   5.01089135
_cell_length_b   5.01089136
_cell_length_c   8.69924206
_cell_angle_alpha   106.73869669
_cell_angle_beta   106.73869670
_cell_angle_gamma   89.99999997
_symmetry_Int_Tables_number   1
_chemical_formula_structural   Ba2ZrS4
_chemical_formula_sum   'Ba2 Zr1 S4'
_cell_volume   199.49010923
_cell_formula_units_Z   1
loop_
 _symmetry_equiv_pos_site_id
 _symmetry_equiv_pos_as_xyz
  1  'x, y, z'
loop_
 _atom_site_type_symbol
 _atom_site_label
 _atom_site_symmetry_multiplicity
 _atom_site_fract_x
 _atom_site_fract_y
 _atom_site_fract_z
 _atom_site_occupancy
  S  S0  1  0.00000000  0.50000000  0.00000000  1
  S  S1  1  0.50000000  0.00000000  0.00000000  1
  S  S2  1  0.83675935  0.83675935  0.67351870  1
  S  S3  1  0.16324065  0.16324065  0.32648130  1
  Zr  Zr4  1  0.00000000  0.00000000  0.00000000  1
  Ba  Ba5  1  0.64170936  0.64170936  0.28341873  1
  Ba  Ba6  1  0.35829064  0.35829064  0.71658127  1
