# generated using pymatgen
data_Sc2Co
_symmetry_space_group_name_H-M   'P 1'
_cell_length_a   5.27260919
_cell_length_b   5.27260919
_cell_length_c   5.27260919
_cell_angle_alpha   106.62545936
_cell_angle_beta   106.62545935
_cell_angle_gamma   115.32622698
_symmetry_Int_Tables_number   1
_chemical_formula_structural   Sc2Co
_chemical_formula_sum   'Sc4 Co2'
_cell_volume   111.94512564
_cell_formula_units_Z   2
loop_
 _symmetry_equiv_pos_site_id
 _symmetry_equiv_pos_as_xyz
  1  'x, y, z'
loop_
 _atom_site_type_symbol
 _atom_site_label
 _atom_site_symmetry_multiplicity
 _atom_site_fract_x
 _atom_site_fract_y
 _atom_site_fract_z
 _atom_site_occupancy
  Sc  Sc0  1  0.32217245  0.82217245  0.14434490  1
  Sc  Sc1  1  0.82217245  0.67782755  0.50000000  1
  Sc  Sc2  1  0.67782755  0.17782755  0.85565510  1
  Sc  Sc3  1  0.17782755  0.32217245  0.50000000  1
  Co  Co4  1  0.75000000  0.75000000  0.00000000  1
  Co  Co5  1  0.25000000  0.25000000  0.00000000  1
