# generated using pymatgen
data_SiNi
_symmetry_space_group_name_H-M   'P 1'
_cell_length_a   3.35012570
_cell_length_b   5.15462838
_cell_length_c   5.58064767
_cell_angle_alpha   90.00000000
_cell_angle_beta   90.00000000
_cell_angle_gamma   90.00000000
_symmetry_Int_Tables_number   1
_chemical_formula_structural   SiNi
_chemical_formula_sum   'Si4 Ni4'
_cell_volume   96.37026818
_cell_formula_units_Z   4
loop_
 _symmetry_equiv_pos_site_id
 _symmetry_equiv_pos_as_xyz
  1  'x, y, z'
loop_
 _atom_site_type_symbol
 _atom_site_label
 _atom_site_symmetry_multiplicity
 _atom_site_fract_x
 _atom_site_fract_y
 _atom_site_fract_z
 _atom_site_occupancy
  Si  Si0  1  0.25000000  0.17842134  0.58343762  1
  Si  Si1  1  0.25000000  0.67842134  0.91656238  1
  Si  Si2  1  0.75000000  0.82157866  0.41656238  1
  Si  Si3  1  0.75000000  0.32157866  0.08343762  1
  Ni  Ni4  1  0.75000000  0.49080657  0.68803921  1
  Ni  Ni5  1  0.75000000  0.99080657  0.81196079  1
  Ni  Ni6  1  0.25000000  0.50919343  0.31196079  1
  Ni  Ni7  1  0.25000000  0.00919343  0.18803921  1
