# generated using pymatgen
data_Zn(InSe2)2
_symmetry_space_group_name_H-M   'P 1'
_cell_length_a   5.88086734
_cell_length_b   5.88086734
_cell_length_c   7.10016627
_cell_angle_alpha   114.41620111
_cell_angle_beta   114.41620111
_cell_angle_gamma   90.09617559
_symmetry_Int_Tables_number   1
_chemical_formula_structural   Zn(InSe2)2
_chemical_formula_sum   'Zn1 In2 Se4'
_cell_volume   199.14116510
_cell_formula_units_Z   1
loop_
 _symmetry_equiv_pos_site_id
 _symmetry_equiv_pos_as_xyz
  1  'x, y, z'
loop_
 _atom_site_type_symbol
 _atom_site_label
 _atom_site_symmetry_multiplicity
 _atom_site_fract_x
 _atom_site_fract_y
 _atom_site_fract_z
 _atom_site_occupancy
  In  In0  1  0.24979178  0.74843693  0.50026957  1
  In  In1  1  0.74843693  0.24979178  0.50026957  1
  Se  Se2  1  0.15198712  0.15198712  0.78111702  1
  Se  Se3  1  0.36822348  0.84733706  0.21706354  1
  Se  Se4  1  0.63206207  0.63206207  0.78364324  1
  Se  Se5  1  0.84733706  0.36822348  0.21706354  1
  Zn  Zn6  1  0.00216155  0.00216155  0.00057352  1
