# generated using pymatgen
data_Li7Sn3
_symmetry_space_group_name_H-M   'P 1'
_cell_length_a   4.74320225
_cell_length_b   8.53177719
_cell_length_c   9.46156768
_cell_angle_alpha   106.10448396
_cell_angle_beta   90.00000000
_cell_angle_gamma   90.00000000
_symmetry_Int_Tables_number   1
_chemical_formula_structural   Li7Sn3
_chemical_formula_sum   'Li14 Sn6'
_cell_volume   367.86460983
_cell_formula_units_Z   2
loop_
 _symmetry_equiv_pos_site_id
 _symmetry_equiv_pos_as_xyz
  1  'x, y, z'
loop_
 _atom_site_type_symbol
 _atom_site_label
 _atom_site_symmetry_multiplicity
 _atom_site_fract_x
 _atom_site_fract_y
 _atom_site_fract_z
 _atom_site_occupancy
  Li  Li0  1  0.75000000  0.60369841  0.27510211  1
  Li  Li1  1  0.25000000  0.39630159  0.72489789  1
  Li  Li2  1  0.75000000  0.99303320  0.87269727  1
  Li  Li3  1  0.25000000  0.00696680  0.12730273  1
  Li  Li4  1  0.75000000  0.00556911  0.37924991  1
  Li  Li5  1  0.25000000  0.99443089  0.62075009  1
  Li  Li6  1  0.75000000  0.19962459  0.68172680  1
  Li  Li7  1  0.25000000  0.80037541  0.31827320  1
  Li  Li8  1  0.75000000  0.18782666  0.16982219  1
  Li  Li9  1  0.25000000  0.81217334  0.83017781  1
  Li  Li10  1  0.75000000  0.40017805  0.46624999  1
  Li  Li11  1  0.25000000  0.59982195  0.53375001  1
  Li  Li12  1  0.75000000  0.39828494  0.98555570  1
  Li  Li13  1  0.25000000  0.60171506  0.01444430  1
  Sn  Sn14  1  0.75000000  0.59579792  0.77600809  1
  Sn  Sn15  1  0.25000000  0.40420208  0.22399191  1
  Sn  Sn16  1  0.75000000  0.80601560  0.08560801  1
  Sn  Sn17  1  0.25000000  0.19398440  0.91439199  1
  Sn  Sn18  1  0.75000000  0.80286926  0.56766633  1
  Sn  Sn19  1  0.25000000  0.19713074  0.43233367  1
