# generated using pymatgen
data_YMgAg
_symmetry_space_group_name_H-M   'P 1'
_cell_length_a   7.76728468
_cell_length_b   7.76728468
_cell_length_c   4.10360986
_cell_angle_alpha   90.00000000
_cell_angle_beta   90.00000000
_cell_angle_gamma   120.00000000
_symmetry_Int_Tables_number   1
_chemical_formula_structural   YMgAg
_chemical_formula_sum   'Y3 Mg3 Ag3'
_cell_volume   214.40511498
_cell_formula_units_Z   3
loop_
 _symmetry_equiv_pos_site_id
 _symmetry_equiv_pos_as_xyz
  1  'x, y, z'
loop_
 _atom_site_type_symbol
 _atom_site_label
 _atom_site_symmetry_multiplicity
 _atom_site_fract_x
 _atom_site_fract_y
 _atom_site_fract_z
 _atom_site_occupancy
  Mg  Mg0  1  0.75208264  0.75208264  0.00000000  1
  Mg  Mg1  1  0.24791736  0.00000000  0.00000000  1
  Mg  Mg2  1  0.00000000  0.24791736  0.00000000  1
  Y  Y3  1  0.41161285  0.41161285  0.50000000  1
  Y  Y4  1  0.00000000  0.58838715  0.50000000  1
  Y  Y5  1  0.58838715  0.00000000  0.50000000  1
  Ag  Ag6  1  0.66666667  0.33333333  0.00000000  1
  Ag  Ag7  1  0.33333333  0.66666667  0.00000000  1
  Ag  Ag8  1  0.00000000  0.00000000  0.50000000  1
