# generated using pymatgen
data_CoReO4
_symmetry_space_group_name_H-M   'P 1'
_cell_length_a   2.88562506
_cell_length_b   4.78838654
_cell_length_c   4.78838654
_cell_angle_alpha   92.58583849
_cell_angle_beta   90.00000000
_cell_angle_gamma   90.00000000
_symmetry_Int_Tables_number   1
_chemical_formula_structural   CoReO4
_chemical_formula_sum   'Co1 Re1 O4'
_cell_volume   66.09610362
_cell_formula_units_Z   1
loop_
 _symmetry_equiv_pos_site_id
 _symmetry_equiv_pos_as_xyz
  1  'x, y, z'
loop_
 _atom_site_type_symbol
 _atom_site_label
 _atom_site_symmetry_multiplicity
 _atom_site_fract_x
 _atom_site_fract_y
 _atom_site_fract_z
 _atom_site_occupancy
  O  O0  1  0.49999909  0.77925604  0.77925618  1
  O  O1  1  0.49999909  0.22074506  0.22074447  1
  O  O2  1  0.00000000  0.29806913  0.70193052  1
  O  O3  1  0.00000000  0.70193198  0.29806799  1
  Co  Co4  1  0.00000000  0.00000000  0.00000000  1
  Re  Re5  1  0.49999909  0.49999948  0.49999922  1
