# generated using pymatgen
data_TiO2
_symmetry_space_group_name_H-M   'P 1'
_cell_length_a   3.80270954
_cell_length_b   3.80270954
_cell_length_c   5.56641424
_cell_angle_alpha   109.97293542
_cell_angle_beta   109.97293542
_cell_angle_gamma   90.00000000
_symmetry_Int_Tables_number   1
_chemical_formula_structural   TiO2
_chemical_formula_sum   'Ti2 O4'
_cell_volume   70.47917097
_cell_formula_units_Z   2
loop_
 _symmetry_equiv_pos_site_id
 _symmetry_equiv_pos_as_xyz
  1  'x, y, z'
loop_
 _atom_site_type_symbol
 _atom_site_label
 _atom_site_symmetry_multiplicity
 _atom_site_fract_x
 _atom_site_fract_y
 _atom_site_fract_z
 _atom_site_occupancy
  Ti  Ti0  1  0.25000000  0.75000000  0.50000000  1
  Ti  Ti1  1  0.00000000  0.00000000  0.00000000  1
  O  O2  1  0.45616307  0.95616307  0.91232614  1
  O  O3  1  0.79383693  0.79383693  0.58767386  1
  O  O4  1  0.04383693  0.54383693  0.08767386  1
  O  O5  1  0.20616307  0.20616307  0.41232614  1
