# generated using pymatgen
data_Ca2GaCu2
_symmetry_space_group_name_H-M   'P 1'
_cell_length_a   4.23074561
_cell_length_b   5.49870357
_cell_length_c   5.68691048
_cell_angle_alpha   118.91114212
_cell_angle_beta   111.83730168
_cell_angle_gamma   90.00000001
_symmetry_Int_Tables_number   1
_chemical_formula_structural   Ca2GaCu2
_chemical_formula_sum   'Ca2 Ga1 Cu2'
_cell_volume   104.83405565
_cell_formula_units_Z   1
loop_
 _symmetry_equiv_pos_site_id
 _symmetry_equiv_pos_as_xyz
  1  'x, y, z'
loop_
 _atom_site_type_symbol
 _atom_site_label
 _atom_site_symmetry_multiplicity
 _atom_site_fract_x
 _atom_site_fract_y
 _atom_site_fract_z
 _atom_site_occupancy
  Ca  Ca0  1  0.80396660  0.30396660  0.60793320  1
  Ca  Ca1  1  0.19603340  0.69603340  0.39206680  1
  Cu  Cu2  1  0.50000000  0.73986477  0.00000000  1
  Cu  Cu3  1  0.50000000  0.26013523  0.00000000  1
  Ga  Ga4  1  0.00000000  0.00000000  0.00000000  1
