# generated using pymatgen
data_MgSiN2
_symmetry_space_group_name_H-M   'P 1'
_cell_length_a   5.03054452
_cell_length_b   5.31004588
_cell_length_c   6.50364532
_cell_angle_alpha   90.00000000
_cell_angle_beta   90.00000000
_cell_angle_gamma   90.00000000
_symmetry_Int_Tables_number   1
_chemical_formula_structural   MgSiN2
_chemical_formula_sum   'Mg4 Si4 N8'
_cell_volume   173.72811964
_cell_formula_units_Z   4
loop_
 _symmetry_equiv_pos_site_id
 _symmetry_equiv_pos_as_xyz
  1  'x, y, z'
loop_
 _atom_site_type_symbol
 _atom_site_label
 _atom_site_symmetry_multiplicity
 _atom_site_fract_x
 _atom_site_fract_y
 _atom_site_fract_z
 _atom_site_occupancy
  N  N0  1  0.41079980  0.60968846  0.84418164  1
  N  N1  1  0.91079980  0.39031154  0.15581836  1
  N  N2  1  0.91079980  0.89031154  0.34418164  1
  N  N3  1  0.41079980  0.10968846  0.65581836  1
  N  N4  1  0.34657652  0.54801434  0.40488135  1
  N  N5  1  0.34657652  0.04801434  0.09511865  1
  N  N6  1  0.84657652  0.95198566  0.90488135  1
  N  N7  1  0.84657652  0.45198566  0.59511865  1
  Mg  Mg8  1  0.98857629  0.58466794  0.87719865  1
  Mg  Mg9  1  0.48857629  0.91533206  0.37719865  1
  Mg  Mg10  1  0.48857629  0.41533206  0.12280135  1
  Mg  Mg11  1  0.98857629  0.08466794  0.62280135  1
  Si  Si12  1  0.00006738  0.06983889  0.12544630  1
  Si  Si13  1  0.50006738  0.93016111  0.87455370  1
  Si  Si14  1  0.50006738  0.43016111  0.62544630  1
  Si  Si15  1  0.00006738  0.56983889  0.37455370  1
