# generated using pymatgen
data_Y(SiIr)2
_symmetry_space_group_name_H-M   'P 1'
_cell_length_a   4.14000856
_cell_length_b   4.14000856
_cell_length_c   9.85594006
_cell_angle_alpha   90.00000000
_cell_angle_beta   90.00000000
_cell_angle_gamma   90.00000000
_symmetry_Int_Tables_number   1
_chemical_formula_structural   Y(SiIr)2
_chemical_formula_sum   'Y2 Si4 Ir4'
_cell_volume   168.92756881
_cell_formula_units_Z   2
loop_
 _symmetry_equiv_pos_site_id
 _symmetry_equiv_pos_as_xyz
  1  'x, y, z'
loop_
 _atom_site_type_symbol
 _atom_site_label
 _atom_site_symmetry_multiplicity
 _atom_site_fract_x
 _atom_site_fract_y
 _atom_site_fract_z
 _atom_site_occupancy
  Si  Si0  1  0.25000000  0.75000000  0.50000000  1
  Si  Si1  1  0.75000000  0.25000000  0.50000000  1
  Si  Si2  1  0.75000000  0.75000000  0.13104477  1
  Si  Si3  1  0.25000000  0.25000000  0.86895523  1
  Y  Y4  1  0.25000000  0.25000000  0.25515705  1
  Y  Y5  1  0.75000000  0.75000000  0.74484295  1
  Ir  Ir6  1  0.75000000  0.75000000  0.37179503  1
  Ir  Ir7  1  0.25000000  0.25000000  0.62820497  1
  Ir  Ir8  1  0.25000000  0.75000000  0.00000000  1
  Ir  Ir9  1  0.75000000  0.25000000  0.00000000  1
