# generated using pymatgen
data_Al4Mo
_symmetry_space_group_name_H-M   'P 1'
_cell_length_a   5.23831334
_cell_length_b   5.27677576
_cell_length_c   9.30282312
_cell_angle_alpha   73.52412916
_cell_angle_beta   87.18352208
_cell_angle_gamma   80.02289411
_symmetry_Int_Tables_number   1
_chemical_formula_structural   Al4Mo
_chemical_formula_sum   'Al12 Mo3'
_cell_volume   242.85552970
_cell_formula_units_Z   3
loop_
 _symmetry_equiv_pos_site_id
 _symmetry_equiv_pos_as_xyz
  1  'x, y, z'
loop_
 _atom_site_type_symbol
 _atom_site_label
 _atom_site_symmetry_multiplicity
 _atom_site_fract_x
 _atom_site_fract_y
 _atom_site_fract_z
 _atom_site_occupancy
  Al  Al0  1  0.52008962  0.83760744  0.00000000  1
  Al  Al1  1  0.15884836  0.48254017  0.00000000  1
  Al  Al2  1  0.69618168  0.39898961  0.84621121  1
  Al  Al3  1  0.69618168  0.24520082  0.15378879  1
  Al  Al4  1  0.22577211  0.28379055  0.76445646  1
  Al  Al5  1  0.22577211  0.04824701  0.23554354  1
  Al  Al6  1  0.82195460  0.92130341  0.75419341  1
  Al  Al7  1  0.82195460  0.67549682  0.24580659  1
  Al  Al8  1  0.59478826  0.53004631  0.52966771  1
  Al  Al9  1  0.59478826  0.05971402  0.47033229  1
  Al  Al10  1  0.08529052  0.70819804  0.50041796  1
  Al  Al11  1  0.08529052  0.20861601  0.49958204  1
  Mo  Mo12  1  0.00250370  0.99351335  0.00000000  1
  Mo  Mo13  1  0.34359198  0.78868730  0.72516186  1
  Mo  Mo14  1  0.34359198  0.51384915  0.27483814  1
