# generated using pymatgen
data_NiAsS
_symmetry_space_group_name_H-M   'P 1'
_cell_length_a   5.69590406
_cell_length_b   5.69590406
_cell_length_c   5.69590406
_cell_angle_alpha   90.00000000
_cell_angle_beta   90.00000000
_cell_angle_gamma   90.00000000
_symmetry_Int_Tables_number   1
_chemical_formula_structural   NiAsS
_chemical_formula_sum   'Ni4 As4 S4'
_cell_volume   184.79405554
_cell_formula_units_Z   4
loop_
 _symmetry_equiv_pos_site_id
 _symmetry_equiv_pos_as_xyz
  1  'x, y, z'
loop_
 _atom_site_type_symbol
 _atom_site_label
 _atom_site_symmetry_multiplicity
 _atom_site_fract_x
 _atom_site_fract_y
 _atom_site_fract_z
 _atom_site_occupancy
  S  S0  1  0.61586993  0.88413007  0.11586993  1
  S  S1  1  0.11586993  0.61586993  0.88413007  1
  S  S2  1  0.88413007  0.11586993  0.61586993  1
  S  S3  1  0.38413007  0.38413007  0.38413007  1
  Ni  Ni4  1  0.49306434  0.50693566  0.00693566  1
  Ni  Ni5  1  0.50693566  0.00693566  0.49306434  1
  Ni  Ni6  1  0.99306434  0.99306434  0.99306434  1
  Ni  Ni7  1  0.00693566  0.49306434  0.50693566  1
  As  As8  1  0.37918984  0.12081016  0.87918984  1
  As  As9  1  0.87918984  0.37918984  0.12081016  1
  As  As10  1  0.62081016  0.62081016  0.62081016  1
  As  As11  1  0.12081016  0.87918984  0.37918984  1
