# generated using pymatgen
data_Mg2Hg
_symmetry_space_group_name_H-M   'P 1'
_cell_length_a   4.68969949
_cell_length_b   6.17943003
_cell_length_c   8.97172484
_cell_angle_alpha   90.00000000
_cell_angle_beta   90.00000000
_cell_angle_gamma   90.00000000
_symmetry_Int_Tables_number   1
_chemical_formula_structural   Mg2Hg
_chemical_formula_sum   'Mg8 Hg4'
_cell_volume   259.99762394
_cell_formula_units_Z   4
loop_
 _symmetry_equiv_pos_site_id
 _symmetry_equiv_pos_as_xyz
  1  'x, y, z'
loop_
 _atom_site_type_symbol
 _atom_site_label
 _atom_site_symmetry_multiplicity
 _atom_site_fract_x
 _atom_site_fract_y
 _atom_site_fract_z
 _atom_site_occupancy
  Mg  Mg0  1  0.25000000  0.95009532  0.70941218  1
  Mg  Mg1  1  0.75000000  0.04990468  0.29058782  1
  Mg  Mg2  1  0.25000000  0.45009532  0.79058782  1
  Mg  Mg3  1  0.75000000  0.54990468  0.20941218  1
  Mg  Mg4  1  0.75000000  0.17947354  0.94389902  1
  Mg  Mg5  1  0.25000000  0.82052646  0.05610098  1
  Mg  Mg6  1  0.75000000  0.67947354  0.55610098  1
  Mg  Mg7  1  0.25000000  0.32052646  0.44389902  1
  Hg  Hg8  1  0.25000000  0.78605461  0.37947949  1
  Hg  Hg9  1  0.75000000  0.21394539  0.62052051  1
  Hg  Hg10  1  0.25000000  0.28605461  0.12052051  1
  Hg  Hg11  1  0.75000000  0.71394539  0.87947949  1
