# generated using pymatgen
data_SrMgSn
_symmetry_space_group_name_H-M   'P 1'
_cell_length_a   4.90272949
_cell_length_b   8.23527103
_cell_length_c   8.94186643
_cell_angle_alpha   90.00000000
_cell_angle_beta   90.00000000
_cell_angle_gamma   90.00000000
_symmetry_Int_Tables_number   1
_chemical_formula_structural   SrMgSn
_chemical_formula_sum   'Sr4 Mg4 Sn4'
_cell_volume   361.03059455
_cell_formula_units_Z   4
loop_
 _symmetry_equiv_pos_site_id
 _symmetry_equiv_pos_as_xyz
  1  'x, y, z'
loop_
 _atom_site_type_symbol
 _atom_site_label
 _atom_site_symmetry_multiplicity
 _atom_site_fract_x
 _atom_site_fract_y
 _atom_site_fract_z
 _atom_site_occupancy
  Mg  Mg0  1  0.75000000  0.35355689  0.93309009  1
  Mg  Mg1  1  0.25000000  0.64644311  0.06690991  1
  Mg  Mg2  1  0.75000000  0.85355689  0.56690991  1
  Mg  Mg3  1  0.25000000  0.14644311  0.43309009  1
  Sr  Sr4  1  0.75000000  0.98873681  0.18821408  1
  Sr  Sr5  1  0.25000000  0.51126319  0.68821408  1
  Sr  Sr6  1  0.25000000  0.01126319  0.81178592  1
  Sr  Sr7  1  0.75000000  0.48873681  0.31178592  1
  Sn  Sn8  1  0.25000000  0.77749664  0.39163459  1
  Sn  Sn9  1  0.25000000  0.27749664  0.10836541  1
  Sn  Sn10  1  0.75000000  0.72250336  0.89163459  1
  Sn  Sn11  1  0.75000000  0.22250336  0.60836541  1
