# generated using pymatgen
data_YHg3
_symmetry_space_group_name_H-M   'P 1'
_cell_length_a   5.03666999
_cell_length_b   6.65819778
_cell_length_c   6.65819778
_cell_angle_alpha   120.01048631
_cell_angle_beta   90.00000000
_cell_angle_gamma   90.00000000
_symmetry_Int_Tables_number   1
_chemical_formula_structural   YHg3
_chemical_formula_sum   'Y2 Hg6'
_cell_volume   193.34885754
_cell_formula_units_Z   2
loop_
 _symmetry_equiv_pos_site_id
 _symmetry_equiv_pos_as_xyz
  1  'x, y, z'
loop_
 _atom_site_type_symbol
 _atom_site_label
 _atom_site_symmetry_multiplicity
 _atom_site_fract_x
 _atom_site_fract_y
 _atom_site_fract_z
 _atom_site_occupancy
  Y  Y0  1  0.75000000  0.66668405  0.33331595  1
  Y  Y1  1  0.25000000  0.33331595  0.66668405  1
  Hg  Hg2  1  0.75000000  0.16608613  0.33218416  1
  Hg  Hg3  1  0.75000000  0.16609997  0.83390003  1
  Hg  Hg4  1  0.75000000  0.66781584  0.83391387  1
  Hg  Hg5  1  0.25000000  0.83391387  0.66781584  1
  Hg  Hg6  1  0.25000000  0.83390003  0.16609997  1
  Hg  Hg7  1  0.25000000  0.33218416  0.16608613  1
