# generated using pymatgen
data_Mg(BC)2
_symmetry_space_group_name_H-M   'P 1'
_cell_length_a   7.22843569
_cell_length_b   7.22843569
_cell_length_c   7.46189931
_cell_angle_alpha   90.00000000
_cell_angle_beta   90.00000000
_cell_angle_gamma   98.18275268
_symmetry_Int_Tables_number   1
_chemical_formula_structural   Mg(BC)2
_chemical_formula_sum   'Mg8 B16 C16'
_cell_volume   385.91696141
_cell_formula_units_Z   8
loop_
 _symmetry_equiv_pos_site_id
 _symmetry_equiv_pos_as_xyz
  1  'x, y, z'
loop_
 _atom_site_type_symbol
 _atom_site_label
 _atom_site_symmetry_multiplicity
 _atom_site_fract_x
 _atom_site_fract_y
 _atom_site_fract_z
 _atom_site_occupancy
  B  B0  1  0.53181815  0.78711556  0.75471963  1
  B  B1  1  0.21288444  0.46818185  0.24528037  1
  B  B2  1  0.28711556  0.03181815  0.74528037  1
  B  B3  1  0.96818185  0.71288444  0.25471963  1
  B  B4  1  0.78711556  0.53181815  0.75471963  1
  B  B5  1  0.71288444  0.96818185  0.25471963  1
  B  B6  1  0.03181815  0.28711556  0.74528037  1
  B  B7  1  0.46818185  0.21288444  0.24528037  1
  B  B8  1  0.34374984  0.84374984  0.25000000  1
  B  B9  1  0.15625016  0.65625016  0.75000000  1
  B  B10  1  0.65625016  0.15625016  0.75000000  1
  B  B11  1  0.84374984  0.34374984  0.25000000  1
  B  B12  1  0.58819882  0.58819882  0.27549753  1
  B  B13  1  0.91180118  0.91180118  0.77549753  1
  B  B14  1  0.08819882  0.08819882  0.22450247  1
  B  B15  1  0.41180118  0.41180118  0.72450247  1
  C  C16  1  0.29893882  0.04979922  0.22477915  1
  C  C17  1  0.20106118  0.45020078  0.72477915  1
  C  C18  1  0.54979922  0.79893882  0.27522085  1
  C  C19  1  0.95020078  0.70106118  0.77522085  1
  C  C20  1  0.04979922  0.29893882  0.22477915  1
  C  C21  1  0.70106118  0.95020078  0.77522085  1
  C  C22  1  0.79893882  0.54979922  0.27522085  1
  C  C23  1  0.45020078  0.20106118  0.72477915  1
  C  C24  1  0.17639704  0.67639704  0.25000000  1
  C  C25  1  0.32360296  0.82360296  0.75000000  1
  C  C26  1  0.82360296  0.32360296  0.75000000  1
  C  C27  1  0.67639704  0.17639704  0.25000000  1
  C  C28  1  0.92042989  0.92042989  0.23069801  1
  C  C29  1  0.57957011  0.57957011  0.73069801  1
  C  C30  1  0.42042989  0.42042989  0.26930199  1
  C  C31  1  0.07957011  0.07957011  0.76930199  1
  Mg  Mg32  1  0.72095165  0.72095165  0.01024518  1
  Mg  Mg33  1  0.77904835  0.77904835  0.51024518  1
  Mg  Mg34  1  0.22095165  0.22095165  0.48975482  1
  Mg  Mg35  1  0.27904835  0.27904835  0.98975482  1
  Mg  Mg36  1  0.65243530  0.34756470  0.50000000  1
  Mg  Mg37  1  0.84756470  0.15243530  0.00000000  1
  Mg  Mg38  1  0.34756470  0.65243530  0.50000000  1
  Mg  Mg39  1  0.15243530  0.84756470  0.00000000  1
