# generated using pymatgen
data_NbZn2
_symmetry_space_group_name_H-M   'P 1'
_cell_length_a   5.07059381
_cell_length_b   5.07059381
_cell_length_c   16.37205541
_cell_angle_alpha   90.00000000
_cell_angle_beta   90.00000000
_cell_angle_gamma   120.00000006
_symmetry_Int_Tables_number   1
_chemical_formula_structural   NbZn2
_chemical_formula_sum   'Nb8 Zn16'
_cell_volume   364.54528139
_cell_formula_units_Z   8
loop_
 _symmetry_equiv_pos_site_id
 _symmetry_equiv_pos_as_xyz
  1  'x, y, z'
loop_
 _atom_site_type_symbol
 _atom_site_label
 _atom_site_symmetry_multiplicity
 _atom_site_fract_x
 _atom_site_fract_y
 _atom_site_fract_z
 _atom_site_occupancy
  Zn  Zn0  1  0.83947594  0.67895188  0.75000000  1
  Zn  Zn1  1  0.16052406  0.83947594  0.25000000  1
  Zn  Zn2  1  0.67895188  0.83947594  0.25000000  1
  Zn  Zn3  1  0.32104812  0.16052406  0.75000000  1
  Zn  Zn4  1  0.83947594  0.16052406  0.75000000  1
  Zn  Zn5  1  0.16052406  0.32104812  0.25000000  1
  Zn  Zn6  1  0.50000000  0.00000000  0.50000000  1
  Zn  Zn7  1  0.50000000  0.50000000  0.00000000  1
  Zn  Zn8  1  0.33333333  0.66666667  0.12683200  1
  Zn  Zn9  1  0.66666667  0.33333333  0.62683200  1
  Zn  Zn10  1  0.66666667  0.33333333  0.87316800  1
  Zn  Zn11  1  0.33333333  0.66666667  0.37316800  1
  Zn  Zn12  1  0.50000000  0.00000000  0.00000000  1
  Zn  Zn13  1  0.50000000  0.50000000  0.50000000  1
  Zn  Zn14  1  0.00000000  0.50000000  0.50000000  1
  Zn  Zn15  1  0.00000000  0.50000000  0.00000000  1
  Nb  Nb16  1  0.33333333  0.66666667  0.65665583  1
  Nb  Nb17  1  0.66666667  0.33333333  0.15665583  1
  Nb  Nb18  1  0.66666667  0.33333333  0.34334417  1
  Nb  Nb19  1  0.33333333  0.66666667  0.84334417  1
  Nb  Nb20  1  0.00000000  0.00000000  0.40918985  1
  Nb  Nb21  1  0.00000000  0.00000000  0.90918985  1
  Nb  Nb22  1  0.00000000  0.00000000  0.59081015  1
  Nb  Nb23  1  0.00000000  0.00000000  0.09081015  1
