# generated using pymatgen
data_LiSn4Au3
_symmetry_space_group_name_H-M   'P 1'
_cell_length_a   4.59197447
_cell_length_b   4.59197446
_cell_length_c   20.94852558
_cell_angle_alpha   90.00000000
_cell_angle_beta   90.00000000
_cell_angle_gamma   119.99999997
_symmetry_Int_Tables_number   1
_chemical_formula_structural   LiSn4Au3
_chemical_formula_sum   'Li2 Sn8 Au6'
_cell_volume   382.54543371
_cell_formula_units_Z   2
loop_
 _symmetry_equiv_pos_site_id
 _symmetry_equiv_pos_as_xyz
  1  'x, y, z'
loop_
 _atom_site_type_symbol
 _atom_site_label
 _atom_site_symmetry_multiplicity
 _atom_site_fract_x
 _atom_site_fract_y
 _atom_site_fract_z
 _atom_site_occupancy
  Li  Li0  1  0.66666667  0.33333333  0.71243181  1
  Li  Li1  1  0.33333333  0.66666667  0.21243181  1
  Sn  Sn2  1  0.00000000  0.00000000  0.79583030  1
  Sn  Sn3  1  0.00000000  0.00000000  0.29583030  1
  Sn  Sn4  1  0.00000000  0.00000000  0.52910444  1
  Sn  Sn5  1  0.00000000  0.00000000  0.02910444  1
  Sn  Sn6  1  0.66666667  0.33333333  0.12526028  1
  Sn  Sn7  1  0.33333333  0.66666667  0.62526028  1
  Sn  Sn8  1  0.66666667  0.33333333  0.40741850  1
  Sn  Sn9  1  0.33333333  0.66666667  0.90741850  1
  Au  Au10  1  0.66666667  0.33333333  0.84470641  1
  Au  Au11  1  0.33333333  0.66666667  0.34470641  1
  Au  Au12  1  0.66666667  0.33333333  0.98454462  1
  Au  Au13  1  0.33333333  0.66666667  0.48454462  1
  Au  Au14  1  0.00000000  0.00000000  0.66493364  1
  Au  Au15  1  0.00000000  0.00000000  0.16493364  1
