# generated using pymatgen
data_Zr2Sb
_symmetry_space_group_name_H-M   'P 1'
_cell_length_a   4.14153761
_cell_length_b   4.14153761
_cell_length_c   8.50837956
_cell_angle_alpha   104.08611275
_cell_angle_beta   104.08611275
_cell_angle_gamma   90.00000000
_symmetry_Int_Tables_number   1
_chemical_formula_structural   Zr2Sb
_chemical_formula_sum   'Zr4 Sb2'
_cell_volume   137.02165832
_cell_formula_units_Z   2
loop_
 _symmetry_equiv_pos_site_id
 _symmetry_equiv_pos_as_xyz
  1  'x, y, z'
loop_
 _atom_site_type_symbol
 _atom_site_label
 _atom_site_symmetry_multiplicity
 _atom_site_fract_x
 _atom_site_fract_y
 _atom_site_fract_z
 _atom_site_occupancy
  Zr  Zr0  1  0.50000000  -0.00000000  -0.00000000  1
  Zr  Zr1  1  -0.00000000  0.50000000  -0.00000000  1
  Zr  Zr2  1  0.67750349  0.67750349  0.35500697  1
  Zr  Zr3  1  0.32249651  0.32249651  0.64499303  1
  Sb  Sb4  1  0.86160570  0.86160570  0.72321139  1
  Sb  Sb5  1  0.13839430  0.13839430  0.27678861  1
