# generated using pymatgen
data_Li2ZrN2
_symmetry_space_group_name_H-M   'P 1'
_cell_length_a   3.29729790
_cell_length_b   3.29727213
_cell_length_c   5.49433141
_cell_angle_alpha   90.00000002
_cell_angle_beta   90.00120702
_cell_angle_gamma   119.99973201
_symmetry_Int_Tables_number   1
_chemical_formula_structural   Li2ZrN2
_chemical_formula_sum   'Li2 Zr1 N2'
_cell_volume   51.73204346
_cell_formula_units_Z   1
loop_
 _symmetry_equiv_pos_site_id
 _symmetry_equiv_pos_as_xyz
  1  'x, y, z'
loop_
 _atom_site_type_symbol
 _atom_site_label
 _atom_site_symmetry_multiplicity
 _atom_site_fract_x
 _atom_site_fract_y
 _atom_site_fract_z
 _atom_site_occupancy
  Li  Li0  1  0.33335001  0.66667501  0.61886075  1
  Li  Li1  1  0.66664999  0.33332499  0.38113925  1
  Zr  Zr2  1  0.00000000  0.00000000  0.00000000  1
  N  N3  1  0.33334532  0.66667266  0.22414688  1
  N  N4  1  0.66665468  0.33332734  0.77585312  1
