# generated using pymatgen
data_Ti3Pt5
_symmetry_space_group_name_H-M   'P 1'
_cell_length_a   5.49383935
_cell_length_b   7.43133001
_cell_length_c   7.43133001
_cell_angle_alpha   67.49344301
_cell_angle_beta   68.30655946
_cell_angle_gamma   68.30655947
_symmetry_Int_Tables_number   1
_chemical_formula_structural   Ti3Pt5
_chemical_formula_sum   'Ti6 Pt10'
_cell_volume   251.06930086
_cell_formula_units_Z   2
loop_
 _symmetry_equiv_pos_site_id
 _symmetry_equiv_pos_as_xyz
  1  'x, y, z'
loop_
 _atom_site_type_symbol
 _atom_site_label
 _atom_site_symmetry_multiplicity
 _atom_site_fract_x
 _atom_site_fract_y
 _atom_site_fract_z
 _atom_site_occupancy
  Ti  Ti0  1  0.14566901  0.64483001  0.64483001  1
  Ti  Ti1  1  0.43532903  0.85516999  0.85516999  1
  Ti  Ti2  1  0.85433099  0.35516999  0.35516999  1
  Ti  Ti3  1  0.56467097  0.14483001  0.14483001  1
  Ti  Ti4  1  0.00000000  0.25000000  0.75000000  1
  Ti  Ti5  1  0.00000000  0.75000000  0.25000000  1
  Pt  Pt6  1  0.10882881  0.10392358  0.10392358  1
  Pt  Pt7  1  0.31667596  0.39607642  0.39607642  1
  Pt  Pt8  1  0.89117119  0.89607642  0.89607642  1
  Pt  Pt9  1  0.68332404  0.60392358  0.60392358  1
  Pt  Pt10  1  0.75689916  0.49310084  0.99310084  1
  Pt  Pt11  1  0.24310084  0.00689916  0.50689916  1
  Pt  Pt12  1  0.24310084  0.50689916  0.00689916  1
  Pt  Pt13  1  0.75689916  0.99310084  0.49310084  1
  Pt  Pt14  1  0.50000000  0.75000000  0.25000000  1
  Pt  Pt15  1  0.50000000  0.25000000  0.75000000  1
