# generated using pymatgen
data_Ca3Au
_symmetry_space_group_name_H-M   'P 1'
_cell_length_a   6.81694396
_cell_length_b   7.86182187
_cell_length_c   9.91693515
_cell_angle_alpha   90.00000000
_cell_angle_beta   90.00000000
_cell_angle_gamma   90.00000000
_symmetry_Int_Tables_number   1
_chemical_formula_structural   Ca3Au
_chemical_formula_sum   'Ca12 Au4'
_cell_volume   531.48424684
_cell_formula_units_Z   4
loop_
 _symmetry_equiv_pos_site_id
 _symmetry_equiv_pos_as_xyz
  1  'x, y, z'
loop_
 _atom_site_type_symbol
 _atom_site_label
 _atom_site_symmetry_multiplicity
 _atom_site_fract_x
 _atom_site_fract_y
 _atom_site_fract_z
 _atom_site_occupancy
  Ca  Ca0  1  0.66272283  0.17493320  0.43628251  1
  Ca  Ca1  1  0.16272283  0.32506680  0.56371749  1
  Ca  Ca2  1  0.83727717  0.67493320  0.06371749  1
  Ca  Ca3  1  0.33727717  0.82506680  0.93628251  1
  Ca  Ca4  1  0.14352682  0.03649661  0.25000000  1
  Ca  Ca5  1  0.64352682  0.46350339  0.75000000  1
  Ca  Ca6  1  0.35647318  0.53649661  0.25000000  1
  Ca  Ca7  1  0.85647318  0.96350339  0.75000000  1
  Ca  Ca8  1  0.66272283  0.17493320  0.06371749  1
  Ca  Ca9  1  0.16272283  0.32506680  0.93628251  1
  Ca  Ca10  1  0.83727717  0.67493320  0.43628251  1
  Ca  Ca11  1  0.33727717  0.82506680  0.56371749  1
  Au  Au12  1  0.04990051  0.62199579  0.75000000  1
  Au  Au13  1  0.54990051  0.87800421  0.25000000  1
  Au  Au14  1  0.45009949  0.12199579  0.75000000  1
  Au  Au15  1  0.95009949  0.37800421  0.25000000  1
