# generated using pymatgen
data_Ca(AlGe)2
_symmetry_space_group_name_H-M   'P 1'
_cell_length_a   4.20449684
_cell_length_b   4.20449685
_cell_length_c   7.17580318
_cell_angle_alpha   90.00000000
_cell_angle_beta   90.00000000
_cell_angle_gamma   119.99999996
_symmetry_Int_Tables_number   1
_chemical_formula_structural   Ca(AlGe)2
_chemical_formula_sum   'Ca1 Al2 Ge2'
_cell_volume   109.85737349
_cell_formula_units_Z   1
loop_
 _symmetry_equiv_pos_site_id
 _symmetry_equiv_pos_as_xyz
  1  'x, y, z'
loop_
 _atom_site_type_symbol
 _atom_site_label
 _atom_site_symmetry_multiplicity
 _atom_site_fract_x
 _atom_site_fract_y
 _atom_site_fract_z
 _atom_site_occupancy
  Al  Al0  1  0.66666667  0.33333333  0.37151414  1
  Al  Al1  1  0.33333333  0.66666667  0.62848586  1
  Ca  Ca2  1  0.00000000  0.00000000  0.00000000  1
  Ge  Ge3  1  0.33333333  0.66666667  0.25937410  1
  Ge  Ge4  1  0.66666667  0.33333333  0.74062590  1
