# generated using pymatgen
data_Al2CdSe4
_symmetry_space_group_name_H-M   'P 1'
_cell_length_a   5.87923624
_cell_length_b   5.87923624
_cell_length_c   6.84787655
_cell_angle_alpha   115.42152077
_cell_angle_beta   115.42152079
_cell_angle_gamma   89.99999997
_symmetry_Int_Tables_number   1
_chemical_formula_structural   Al2CdSe4
_chemical_formula_sum   'Al2 Cd1 Se4'
_cell_volume   188.09020846
_cell_formula_units_Z   1
loop_
 _symmetry_equiv_pos_site_id
 _symmetry_equiv_pos_as_xyz
  1  'x, y, z'
loop_
 _atom_site_type_symbol
 _atom_site_label
 _atom_site_symmetry_multiplicity
 _atom_site_fract_x
 _atom_site_fract_y
 _atom_site_fract_z
 _atom_site_occupancy
  Al  Al0  1  0.25000000  0.75000000  0.50000000  1
  Al  Al1  1  0.50000000  0.50000000  0.00000000  1
  Se  Se2  1  0.86683258  0.86779227  0.27384502  1
  Se  Se3  1  0.40701245  0.40605275  0.27384502  1
  Se  Se4  1  0.13220773  0.59298755  0.72615498  1
  Se  Se5  1  0.59394725  0.13316742  0.72615498  1
  Cd  Cd6  1  0.00000000  0.00000000  0.00000000  1
