# generated using pymatgen
data_Be17Nb2
_symmetry_space_group_name_H-M   'P 1'
_cell_length_a   5.56194949
_cell_length_b   5.56194949
_cell_length_c   5.56194950
_cell_angle_alpha   83.13461252
_cell_angle_beta   83.13461254
_cell_angle_gamma   83.13461250
_symmetry_Int_Tables_number   1
_chemical_formula_structural   Be17Nb2
_chemical_formula_sum   'Be17 Nb2'
_cell_volume   168.63233041
_cell_formula_units_Z   1
loop_
 _symmetry_equiv_pos_site_id
 _symmetry_equiv_pos_as_xyz
  1  'x, y, z'
loop_
 _atom_site_type_symbol
 _atom_site_label
 _atom_site_symmetry_multiplicity
 _atom_site_fract_x
 _atom_site_fract_y
 _atom_site_fract_z
 _atom_site_occupancy
  Be  Be0  1  0.40108182  0.40108182  0.40108182  1
  Be  Be1  1  0.59891818  0.59891818  0.59891818  1
  Be  Be2  1  0.50000000  0.50000000  0.00000000  1
  Be  Be3  1  0.00000000  0.50000000  0.50000000  1
  Be  Be4  1  0.50000000  0.00000000  0.50000000  1
  Be  Be5  1  0.79367072  0.50000000  0.20632928  1
  Be  Be6  1  0.20632928  0.79367072  0.50000000  1
  Be  Be7  1  0.50000000  0.20632928  0.79367072  1
  Be  Be8  1  0.20632928  0.50000000  0.79367072  1
  Be  Be9  1  0.79367072  0.20632928  0.50000000  1
  Be  Be10  1  0.50000000  0.79367072  0.20632928  1
  Be  Be11  1  0.15326702  0.66049076  0.15326702  1
  Be  Be12  1  0.15326702  0.15326702  0.66049076  1
  Be  Be13  1  0.66049076  0.15326702  0.15326702  1
  Be  Be14  1  0.33950924  0.84673298  0.84673298  1
  Be  Be15  1  0.84673298  0.33950924  0.84673298  1
  Be  Be16  1  0.84673298  0.84673298  0.33950924  1
  Nb  Nb17  1  0.15888273  0.15888273  0.15888273  1
  Nb  Nb18  1  0.84111727  0.84111727  0.84111727  1
