# generated using pymatgen
data_Y(Al2Cr)4
_symmetry_space_group_name_H-M   'P 1'
_cell_length_a   5.05361727
_cell_length_b   6.79386626
_cell_length_c   6.79386625
_cell_angle_alpha   82.04888222
_cell_angle_beta   68.16561457
_cell_angle_gamma   68.16561453
_symmetry_Int_Tables_number   1
_chemical_formula_structural   Y(Al2Cr)4
_chemical_formula_sum   'Y1 Al8 Cr4'
_cell_volume   200.99174262
_cell_formula_units_Z   1
loop_
 _symmetry_equiv_pos_site_id
 _symmetry_equiv_pos_as_xyz
  1  'x, y, z'
loop_
 _atom_site_type_symbol
 _atom_site_label
 _atom_site_symmetry_multiplicity
 _atom_site_fract_x
 _atom_site_fract_y
 _atom_site_fract_z
 _atom_site_occupancy
  Al  Al0  1  0.33700164  0.66299836  0.66299836  1
  Al  Al1  1  0.00000000  0.33700164  0.66299836  1
  Al  Al2  1  0.00000000  0.66299836  0.33700164  1
  Al  Al3  1  0.66299836  0.33700164  0.33700164  1
  Al  Al4  1  0.27730670  0.22269330  0.22269330  1
  Al  Al5  1  0.50000000  0.77730670  0.22269330  1
  Al  Al6  1  0.50000000  0.22269330  0.77730670  1
  Al  Al7  1  0.72269330  0.77730670  0.77730670  1
  Cr  Cr8  1  0.50000000  0.00000000  0.50000000  1
  Cr  Cr9  1  0.00000000  0.50000000  0.00000000  1
  Cr  Cr10  1  0.50000000  0.50000000  0.00000000  1
  Cr  Cr11  1  0.00000000  0.00000000  0.50000000  1
  Y  Y12  1  0.00000000  0.00000000  0.00000000  1
