# generated using pymatgen
data_Be17Ru3
_symmetry_space_group_name_H-M   'P 1'
_cell_length_a   9.80586905
_cell_length_b   9.80586905
_cell_length_c   9.80586905
_cell_angle_alpha   109.47122066
_cell_angle_beta   109.47122065
_cell_angle_gamma   109.47122062
_symmetry_Int_Tables_number   1
_chemical_formula_structural   Be17Ru3
_chemical_formula_sum   'Be68 Ru12'
_cell_volume   725.83244410
_cell_formula_units_Z   4
loop_
 _symmetry_equiv_pos_site_id
 _symmetry_equiv_pos_as_xyz
  1  'x, y, z'
loop_
 _atom_site_type_symbol
 _atom_site_label
 _atom_site_symmetry_multiplicity
 _atom_site_fract_x
 _atom_site_fract_y
 _atom_site_fract_z
 _atom_site_occupancy
  Be  Be0  1  0.00000000  0.40300415  0.40300415  1
  Be  Be1  1  0.59699585  0.59699585  0.00000000  1
  Be  Be2  1  0.59699585  0.00000000  0.59699585  1
  Be  Be3  1  0.40300415  0.40300415  0.00000000  1
  Be  Be4  1  0.40300415  0.00000000  0.40300415  1
  Be  Be5  1  0.00000000  0.59699585  0.59699585  1
  Be  Be6  1  0.50000000  0.69463949  0.19463949  1
  Be  Be7  1  0.30536051  0.80536051  0.50000000  1
  Be  Be8  1  0.80536051  0.50000000  0.30536051  1
  Be  Be9  1  0.69463949  0.19463949  0.50000000  1
  Be  Be10  1  0.19463949  0.50000000  0.69463949  1
  Be  Be11  1  0.50000000  0.30536051  0.80536051  1
  Be  Be12  1  0.33014076  0.33014076  0.33014076  1
  Be  Be13  1  0.00000000  0.66985924  0.00000000  1
  Be  Be14  1  0.00000000  0.00000000  0.66985924  1
  Be  Be15  1  0.66985924  0.00000000  0.00000000  1
  Be  Be16  1  0.66985924  0.66985924  0.66985924  1
  Be  Be17  1  0.00000000  0.33014076  0.00000000  1
  Be  Be18  1  0.00000000  0.00000000  0.33014076  1
  Be  Be19  1  0.33014076  0.00000000  0.00000000  1
  Be  Be20  1  0.32482137  0.09348763  0.23133374  1
  Be  Be21  1  0.09348763  0.76866626  0.86215389  1
  Be  Be22  1  0.23133374  0.13784611  0.90651237  1
  Be  Be23  1  0.90651237  0.76866626  0.67517863  1
  Be  Be24  1  0.76866626  0.86215389  0.09348763  1
  Be  Be25  1  0.90651237  0.23133374  0.13784611  1
  Be  Be26  1  0.76866626  0.67517863  0.90651237  1
  Be  Be27  1  0.23133374  0.32482137  0.09348763  1
  Be  Be28  1  0.09348763  0.23133374  0.32482137  1
  Be  Be29  1  0.86215389  0.09348763  0.76866626  1
  Be  Be30  1  0.13784611  0.90651237  0.23133374  1
  Be  Be31  1  0.67517863  0.90651237  0.76866626  1
  Be  Be32  1  0.75374672  0.34900477  0.40474195  1
  Be  Be33  1  0.34900477  0.59525805  0.94426282  1
  Be  Be34  1  0.40474195  0.05573718  0.65099523  1
  Be  Be35  1  0.65099523  0.59525805  0.24625328  1
  Be  Be36  1  0.59525805  0.94426282  0.34900477  1
  Be  Be37  1  0.65099523  0.40474195  0.05573718  1
  Be  Be38  1  0.59525805  0.24625328  0.65099523  1
  Be  Be39  1  0.40474195  0.75374672  0.34900477  1
  Be  Be40  1  0.34900477  0.40474195  0.75374672  1
  Be  Be41  1  0.94426282  0.34900477  0.59525805  1
  Be  Be42  1  0.05573718  0.65099523  0.40474195  1
  Be  Be43  1  0.24625328  0.65099523  0.59525805  1
  Be  Be44  1  0.45552778  0.54271618  0.31486237  1
  Be  Be45  1  0.14066541  0.68513763  0.22785381  1
  Be  Be46  1  0.91281159  0.77214619  0.45728382  1
  Be  Be47  1  0.85933459  0.08718841  0.54447222  1
  Be  Be48  1  0.68513763  0.22785381  0.14066541  1
  Be  Be49  1  0.45728382  0.91281159  0.77214619  1
  Be  Be50  1  0.08718841  0.54447222  0.85933459  1
  Be  Be51  1  0.31486237  0.45552778  0.54271618  1
  Be  Be52  1  0.54271618  0.31486237  0.45552778  1
  Be  Be53  1  0.22785381  0.14066541  0.68513763  1
  Be  Be54  1  0.77214619  0.45728382  0.91281159  1
  Be  Be55  1  0.54447222  0.85933459  0.08718841  1
  Be  Be56  1  0.54447222  0.45728382  0.68513763  1
  Be  Be57  1  0.85933459  0.31486237  0.77214619  1
  Be  Be58  1  0.08718841  0.22785381  0.54271618  1
  Be  Be59  1  0.14066541  0.91281159  0.45552778  1
  Be  Be60  1  0.31486237  0.77214619  0.85933459  1
  Be  Be61  1  0.54271618  0.08718841  0.22785381  1
  Be  Be62  1  0.91281159  0.45552778  0.14066541  1
  Be  Be63  1  0.68513763  0.54447222  0.45728382  1
  Be  Be64  1  0.45728382  0.68513763  0.54447222  1
  Be  Be65  1  0.77214619  0.85933459  0.31486237  1
  Be  Be66  1  0.22785381  0.54271618  0.08718841  1
  Be  Be67  1  0.45552778  0.14066541  0.91281159  1
  Ru  Ru68  1  0.48933016  0.30126204  0.18806812  1
  Ru  Ru69  1  0.30126204  0.81193188  0.11319393  1
  Ru  Ru70  1  0.18806812  0.88680607  0.69873796  1
  Ru  Ru71  1  0.69873796  0.81193188  0.51066984  1
  Ru  Ru72  1  0.81193188  0.11319393  0.30126204  1
  Ru  Ru73  1  0.69873796  0.18806812  0.88680607  1
  Ru  Ru74  1  0.81193188  0.51066984  0.69873796  1
  Ru  Ru75  1  0.18806812  0.48933016  0.30126204  1
  Ru  Ru76  1  0.30126204  0.18806812  0.48933016  1
  Ru  Ru77  1  0.11319393  0.30126204  0.81193188  1
  Ru  Ru78  1  0.88680607  0.69873796  0.18806812  1
  Ru  Ru79  1  0.51066984  0.69873796  0.81193188  1
