# generated using pymatgen
data_CaSnPd
_symmetry_space_group_name_H-M   'P 1'
_cell_length_a   4.63028017
_cell_length_b   7.38116070
_cell_length_c   8.13435712
_cell_angle_alpha   90.00000000
_cell_angle_beta   90.00000000
_cell_angle_gamma   90.00000000
_symmetry_Int_Tables_number   1
_chemical_formula_structural   CaSnPd
_chemical_formula_sum   'Ca4 Sn4 Pd4'
_cell_volume   278.00663823
_cell_formula_units_Z   4
loop_
 _symmetry_equiv_pos_site_id
 _symmetry_equiv_pos_as_xyz
  1  'x, y, z'
loop_
 _atom_site_type_symbol
 _atom_site_label
 _atom_site_symmetry_multiplicity
 _atom_site_fract_x
 _atom_site_fract_y
 _atom_site_fract_z
 _atom_site_occupancy
  Ca  Ca0  1  0.75000000  0.47981337  0.18602802  1
  Ca  Ca1  1  0.25000000  0.52018663  0.81397198  1
  Ca  Ca2  1  0.25000000  0.02018663  0.68602802  1
  Ca  Ca3  1  0.75000000  0.97981337  0.31397198  1
  Pd  Pd4  1  0.75000000  0.21248014  0.88932648  1
  Pd  Pd5  1  0.75000000  0.71248014  0.61067352  1
  Pd  Pd6  1  0.25000000  0.78751986  0.11067352  1
  Pd  Pd7  1  0.25000000  0.28751986  0.38932648  1
  Sn  Sn8  1  0.75000000  0.33459748  0.57080101  1
  Sn  Sn9  1  0.25000000  0.66540252  0.42919899  1
  Sn  Sn10  1  0.75000000  0.83459748  0.92919899  1
  Sn  Sn11  1  0.25000000  0.16540252  0.07080101  1
