# generated using pymatgen
data_MgAu3
_symmetry_space_group_name_H-M   'P 1'
_cell_length_a   5.90333210
_cell_length_b   9.60060751
_cell_length_c   10.52746545
_cell_angle_alpha   90.00000000
_cell_angle_beta   106.28274550
_cell_angle_gamma   90.00000000
_symmetry_Int_Tables_number   1
_chemical_formula_structural   MgAu3
_chemical_formula_sum   'Mg8 Au24'
_cell_volume   572.71837820
_cell_formula_units_Z   8
loop_
 _symmetry_equiv_pos_site_id
 _symmetry_equiv_pos_as_xyz
  1  'x, y, z'
loop_
 _atom_site_type_symbol
 _atom_site_label
 _atom_site_symmetry_multiplicity
 _atom_site_fract_x
 _atom_site_fract_y
 _atom_site_fract_z
 _atom_site_occupancy
  Mg  Mg0  1  0.87631316  0.50083421  0.75262633  1
  Mg  Mg1  1  0.12368684  0.49916579  0.24737367  1
  Mg  Mg2  1  0.12368684  0.00083421  0.24737367  1
  Mg  Mg3  1  0.87631316  0.99916579  0.75262633  1
  Mg  Mg4  1  0.54056934  0.75000000  0.08113868  1
  Mg  Mg5  1  0.45943066  0.25000000  0.91886132  1
  Mg  Mg6  1  0.29310474  0.75000000  0.58620948  1
  Mg  Mg7  1  0.70689526  0.25000000  0.41379052  1
  Au  Au8  1  0.25159357  0.00000000  0.00000000  1
  Au  Au9  1  0.74840643  0.50000000  0.00000000  1
  Au  Au10  1  0.74840643  0.00000000  0.00000000  1
  Au  Au11  1  0.25159357  0.50000000  0.00000000  1
  Au  Au12  1  0.62577033  0.99850554  0.25154066  1
  Au  Au13  1  0.37422967  0.00149446  0.74845934  1
  Au  Au14  1  0.37422967  0.49850554  0.74845934  1
  Au  Au15  1  0.62577033  0.50149446  0.25154066  1
  Au  Au16  1  0.08081061  0.25000000  0.66624480  1
  Au  Au17  1  0.41456581  0.75000000  0.33375520  1
  Au  Au18  1  0.91918939  0.75000000  0.33375520  1
  Au  Au19  1  0.58543419  0.25000000  0.66624480  1
  Au  Au20  1  0.33372000  0.25000000  0.16728657  1
  Au  Au21  1  0.16643343  0.75000000  0.83271343  1
  Au  Au22  1  0.66628000  0.75000000  0.83271343  1
  Au  Au23  1  0.83356657  0.25000000  0.16728657  1
  Au  Au24  1  0.50000000  0.50000000  0.50000000  1
  Au  Au25  1  0.00000000  0.50000000  0.50000000  1
  Au  Au26  1  0.50000000  0.00000000  0.50000000  1
  Au  Au27  1  0.00000000  0.00000000  0.50000000  1
  Au  Au28  1  0.79219433  0.75000000  0.58438866  1
  Au  Au29  1  0.20780567  0.25000000  0.41561134  1
  Au  Au30  1  0.04413998  0.75000000  0.08827995  1
  Au  Au31  1  0.95586002  0.25000000  0.91172005  1
