# generated using pymatgen
data_Zn(GaS2)2
_symmetry_space_group_name_H-M   'P 1'
_cell_length_a   5.24049506
_cell_length_b   5.24049506
_cell_length_c   6.57671627
_cell_angle_alpha   113.45513138
_cell_angle_beta   113.45513138
_cell_angle_gamma   90.01480480
_symmetry_Int_Tables_number   1
_chemical_formula_structural   Zn(GaS2)2
_chemical_formula_sum   'Zn1 Ga2 S4'
_cell_volume   149.27376763
_cell_formula_units_Z   1
loop_
 _symmetry_equiv_pos_site_id
 _symmetry_equiv_pos_as_xyz
  1  'x, y, z'
loop_
 _atom_site_type_symbol
 _atom_site_label
 _atom_site_symmetry_multiplicity
 _atom_site_fract_x
 _atom_site_fract_y
 _atom_site_fract_z
 _atom_site_occupancy
  Ga  Ga0  1  0.25032772  0.74979706  0.50002239  1
  Ga  Ga1  1  0.74979706  0.25032772  0.50002239  1
  S  S2  1  0.14047809  0.61488628  0.75556667  1
  S  S3  1  0.38477725  0.38477725  0.24418221  1
  S  S4  1  0.61488628  0.14047809  0.75556667  1
  S  S5  1  0.86011311  0.86011311  0.24506244  1
  Zn  Zn6  1  0.99962048  0.99962048  0.99957721  1
