# generated using pymatgen
data_Nb4AlC3
_symmetry_space_group_name_H-M   'P 1'
_cell_length_a   3.16040277
_cell_length_b   3.16040278
_cell_length_c   24.36537810
_cell_angle_alpha   90.00000000
_cell_angle_beta   90.00000000
_cell_angle_gamma   120.00000003
_symmetry_Int_Tables_number   1
_chemical_formula_structural   Nb4AlC3
_chemical_formula_sum   'Nb8 Al2 C6'
_cell_volume   210.76022578
_cell_formula_units_Z   2
loop_
 _symmetry_equiv_pos_site_id
 _symmetry_equiv_pos_as_xyz
  1  'x, y, z'
loop_
 _atom_site_type_symbol
 _atom_site_label
 _atom_site_symmetry_multiplicity
 _atom_site_fract_x
 _atom_site_fract_y
 _atom_site_fract_z
 _atom_site_occupancy
  C  C0  1  0.66666667  0.33333333  0.39130031  1
  C  C1  1  0.33333333  0.66666667  0.89130031  1
  C  C2  1  0.33333333  0.66666667  0.60869969  1
  C  C3  1  0.00000000  0.00000000  0.00000000  1
  C  C4  1  0.66666667  0.33333333  0.10869969  1
  C  C5  1  0.00000000  0.00000000  0.50000000  1
  Al  Al6  1  0.66666667  0.33333333  0.75000000  1
  Al  Al7  1  0.33333333  0.66666667  0.25000000  1
  Nb  Nb8  1  0.00000000  0.00000000  0.34276645  1
  Nb  Nb9  1  0.00000000  0.00000000  0.84276645  1
  Nb  Nb10  1  0.00000000  0.00000000  0.65723355  1
  Nb  Nb11  1  0.00000000  0.00000000  0.15723355  1
  Nb  Nb12  1  0.33333333  0.66666667  0.44481906  1
  Nb  Nb13  1  0.66666667  0.33333333  0.94481906  1
  Nb  Nb14  1  0.66666667  0.33333333  0.55518094  1
  Nb  Nb15  1  0.33333333  0.66666667  0.05518094  1
