# generated using pymatgen
data_Sc(Al2Fe)4
_symmetry_space_group_name_H-M   'P 1'
_cell_length_a   5.00251574
_cell_length_b   6.57373319
_cell_length_c   6.57373319
_cell_angle_alpha   81.67576501
_cell_angle_beta   67.63579154
_cell_angle_gamma   67.63579149
_symmetry_Int_Tables_number   1
_chemical_formula_structural   Sc(Al2Fe)4
_chemical_formula_sum   'Sc1 Al8 Fe4'
_cell_volume   184.88136172
_cell_formula_units_Z   1
loop_
 _symmetry_equiv_pos_site_id
 _symmetry_equiv_pos_as_xyz
  1  'x, y, z'
loop_
 _atom_site_type_symbol
 _atom_site_label
 _atom_site_symmetry_multiplicity
 _atom_site_fract_x
 _atom_site_fract_y
 _atom_site_fract_z
 _atom_site_occupancy
  Al  Al0  1  0.66443703  0.33556297  0.33556297  1
  Al  Al1  1  0.00000000  0.66443703  0.33556297  1
  Al  Al2  1  0.00000000  0.33556297  0.66443703  1
  Al  Al3  1  0.33556297  0.66443703  0.66443703  1
  Al  Al4  1  0.71785696  0.78214304  0.78214304  1
  Al  Al5  1  0.28214304  0.21785696  0.21785696  1
  Al  Al6  1  0.50000000  0.78214304  0.21785696  1
  Al  Al7  1  0.50000000  0.21785696  0.78214304  1
  Sc  Sc8  1  0.00000000  0.00000000  0.00000000  1
  Fe  Fe9  1  0.50000000  0.50000000  0.00000000  1
  Fe  Fe10  1  0.00000000  0.50000000  0.00000000  1
  Fe  Fe11  1  0.50000000  0.00000000  0.50000000  1
  Fe  Fe12  1  0.00000000  0.00000000  0.50000000  1
