# generated using pymatgen
data_B2O3
_symmetry_space_group_name_H-M   'P 1'
_cell_length_a   4.40257519
_cell_length_b   4.40257519
_cell_length_c   8.81526782
_cell_angle_alpha   90.00000000
_cell_angle_beta   90.00000000
_cell_angle_gamma   119.99999989
_symmetry_Int_Tables_number   1
_chemical_formula_structural   B2O3
_chemical_formula_sum   'B6 O9'
_cell_volume   147.97205564
_cell_formula_units_Z   3
loop_
 _symmetry_equiv_pos_site_id
 _symmetry_equiv_pos_as_xyz
  1  'x, y, z'
loop_
 _atom_site_type_symbol
 _atom_site_label
 _atom_site_symmetry_multiplicity
 _atom_site_fract_x
 _atom_site_fract_y
 _atom_site_fract_z
 _atom_site_occupancy
  B  B0  1  0.11469680  0.26352048  0.90024754  1
  B  B1  1  0.14882368  0.88530320  0.56691421  1
  B  B2  1  0.73647952  0.85117632  0.23358088  1
  B  B3  1  0.55216456  0.48195905  0.68176627  1
  B  B4  1  0.92979448  0.44783544  0.34843294  1
  B  B5  1  0.51804095  0.07020552  0.01509960  1
  O  O6  1  0.45718091  0.20009828  0.58676649  1
  O  O7  1  0.79990172  0.25708263  0.92009983  1
  O  O8  1  0.74291737  0.54281909  0.25343316  1
  O  O9  1  0.33333628  0.48773608  0.79093210  1
  O  O10  1  0.15439980  0.66666372  0.45759877  1
  O  O11  1  0.51226392  0.84560020  0.12426544  1
  O  O12  1  0.86700445  0.79023439  0.66195426  1
  O  O13  1  0.92322994  0.13299555  0.32862093  1
  O  O14  1  0.20976561  0.07677006  0.99528759  1
