# generated using pymatgen
data_Li7Sn2
_symmetry_space_group_name_H-M   'P 1'
_cell_length_a   4.71086654
_cell_length_b   8.47649448
_cell_length_c   8.47649448
_cell_angle_alpha   109.37277858
_cell_angle_beta   90.00000000
_cell_angle_gamma   90.00000000
_symmetry_Int_Tables_number   1
_chemical_formula_structural   Li7Sn2
_chemical_formula_sum   'Li14 Sn4'
_cell_volume   319.31564625
_cell_formula_units_Z   2
loop_
 _symmetry_equiv_pos_site_id
 _symmetry_equiv_pos_as_xyz
  1  'x, y, z'
loop_
 _atom_site_type_symbol
 _atom_site_label
 _atom_site_symmetry_multiplicity
 _atom_site_fract_x
 _atom_site_fract_y
 _atom_site_fract_z
 _atom_site_occupancy
  Li  Li0  1  0.00000000  0.00000000  0.00000000  1
  Li  Li1  1  0.50000000  0.50000000  0.50000000  1
  Li  Li2  1  0.00000000  0.34690947  0.34690947  1
  Li  Li3  1  0.00000000  0.65309053  0.65309053  1
  Li  Li4  1  0.50000000  0.17254426  0.82745574  1
  Li  Li5  1  0.50000000  0.82745574  0.17254426  1
  Li  Li6  1  0.00000000  0.34396901  0.02929501  1
  Li  Li7  1  0.00000000  0.65603099  0.97070499  1
  Li  Li8  1  0.00000000  0.02929501  0.34396901  1
  Li  Li9  1  0.00000000  0.97070499  0.65603099  1
  Li  Li10  1  0.50000000  0.50342607  0.18038706  1
  Li  Li11  1  0.50000000  0.49657393  0.81961294  1
  Li  Li12  1  0.50000000  0.18038706  0.50342607  1
  Li  Li13  1  0.50000000  0.81961294  0.49657393  1
  Sn  Sn14  1  0.50000000  0.16471636  0.16471636  1
  Sn  Sn15  1  0.50000000  0.83528364  0.83528364  1
  Sn  Sn16  1  0.00000000  0.31767650  0.68232350  1
  Sn  Sn17  1  0.00000000  0.68232350  0.31767650  1
