# generated using pymatgen
data_ScCd7
_symmetry_space_group_name_H-M   'P 1'
_cell_length_a   6.31296293
_cell_length_b   6.31296293
_cell_length_c   9.43415842
_cell_angle_alpha   90.00000000
_cell_angle_beta   90.00000000
_cell_angle_gamma   107.69718852
_symmetry_Int_Tables_number   1
_chemical_formula_structural   ScCd7
_chemical_formula_sum   'Sc2 Cd14'
_cell_volume   358.19131318
_cell_formula_units_Z   2
loop_
 _symmetry_equiv_pos_site_id
 _symmetry_equiv_pos_as_xyz
  1  'x, y, z'
loop_
 _atom_site_type_symbol
 _atom_site_label
 _atom_site_symmetry_multiplicity
 _atom_site_fract_x
 _atom_site_fract_y
 _atom_site_fract_z
 _atom_site_occupancy
  Sc  Sc0  1  0.52152391  0.47847609  0.75000000  1
  Sc  Sc1  1  0.47847609  0.52152391  0.25000000  1
  Cd  Cd2  1  0.59673499  0.99758146  0.75000000  1
  Cd  Cd3  1  0.40326501  0.00241854  0.25000000  1
  Cd  Cd4  1  0.99758146  0.59673499  0.25000000  1
  Cd  Cd5  1  0.00241854  0.40326501  0.75000000  1
  Cd  Cd6  1  0.29089835  0.70910165  0.98253032  1
  Cd  Cd7  1  0.70910165  0.29089835  0.48253032  1
  Cd  Cd8  1  0.70910165  0.29089835  0.01746968  1
  Cd  Cd9  1  0.29089835  0.70910165  0.51746968  1
  Cd  Cd10  1  0.21184763  0.21184763  0.00000000  1
  Cd  Cd11  1  0.78815237  0.78815237  0.50000000  1
  Cd  Cd12  1  0.78815237  0.78815237  0.00000000  1
  Cd  Cd13  1  0.21184763  0.21184763  0.50000000  1
  Cd  Cd14  1  0.08477310  0.91522690  0.75000000  1
  Cd  Cd15  1  0.91522690  0.08477310  0.25000000  1
