# generated using pymatgen
data_Zr2Ga3
_symmetry_space_group_name_H-M   'P 1'
_cell_length_a   5.51056161
_cell_length_b   5.51056161
_cell_length_c   7.46169823
_cell_angle_alpha   100.82765201
_cell_angle_beta   100.82765201
_cell_angle_gamma   119.42346793
_symmetry_Int_Tables_number   1
_chemical_formula_structural   Zr2Ga3
_chemical_formula_sum   'Zr4 Ga6'
_cell_volume   183.15661969
_cell_formula_units_Z   2
loop_
 _symmetry_equiv_pos_site_id
 _symmetry_equiv_pos_as_xyz
  1  'x, y, z'
loop_
 _atom_site_type_symbol
 _atom_site_label
 _atom_site_symmetry_multiplicity
 _atom_site_fract_x
 _atom_site_fract_y
 _atom_site_fract_z
 _atom_site_occupancy
  Zr  Zr0  1  0.13736820  0.99880686  0.60458340  1
  Zr  Zr1  1  0.39422346  0.53278479  0.39541660  1
  Zr  Zr2  1  0.24880686  0.88736820  0.10458340  1
  Zr  Zr3  1  0.78278479  0.14422346  0.89541660  1
  Ga  Ga4  1  0.64668089  0.14668089  0.50000000  1
  Ga  Ga5  1  0.39668089  0.39668089  -0.00000000  1
  Ga  Ga6  1  0.73121657  0.59068450  0.77017362  1
  Ga  Ga7  1  0.82051088  0.96104296  0.22982638  1
  Ga  Ga8  1  0.84068450  0.48121657  0.27017362  1
  Ga  Ga9  1  0.21104296  0.57051088  0.72982638  1
