# generated using pymatgen
data_CaGaPt
_symmetry_space_group_name_H-M   'P 1'
_cell_length_a   4.47055608
_cell_length_b   7.17434425
_cell_length_c   7.62183199
_cell_angle_alpha   90.00000000
_cell_angle_beta   90.00000000
_cell_angle_gamma   90.00000000
_symmetry_Int_Tables_number   1
_chemical_formula_structural   CaGaPt
_chemical_formula_sum   'Ca4 Ga4 Pt4'
_cell_volume   244.45736728
_cell_formula_units_Z   4
loop_
 _symmetry_equiv_pos_site_id
 _symmetry_equiv_pos_as_xyz
  1  'x, y, z'
loop_
 _atom_site_type_symbol
 _atom_site_label
 _atom_site_symmetry_multiplicity
 _atom_site_fract_x
 _atom_site_fract_y
 _atom_site_fract_z
 _atom_site_occupancy
  Ca  Ca0  1  0.75000000  0.98880972  0.31156422  1
  Ca  Ca1  1  0.25000000  0.01119028  0.68843578  1
  Ca  Ca2  1  0.75000000  0.48880972  0.18843578  1
  Ca  Ca3  1  0.25000000  0.51119028  0.81156422  1
  Ga  Ga4  1  0.75000000  0.83363105  0.92231611  1
  Ga  Ga5  1  0.25000000  0.16636895  0.07768389  1
  Ga  Ga6  1  0.75000000  0.33363105  0.57768389  1
  Ga  Ga7  1  0.25000000  0.66636895  0.42231611  1
  Pt  Pt8  1  0.75000000  0.70389547  0.60155254  1
  Pt  Pt9  1  0.25000000  0.29610453  0.39844746  1
  Pt  Pt10  1  0.75000000  0.20389547  0.89844746  1
  Pt  Pt11  1  0.25000000  0.79610453  0.10155254  1
