# generated using pymatgen
data_K2MgF4
_symmetry_space_group_name_H-M   'P 1'
_cell_length_a   4.03520206
_cell_length_b   4.03520206
_cell_length_c   7.25949399
_cell_angle_alpha   106.13645188
_cell_angle_beta   106.13645183
_cell_angle_gamma   89.99999996
_symmetry_Int_Tables_number   1
_chemical_formula_structural   K2MgF4
_chemical_formula_sum   'K2 Mg1 F4'
_cell_volume   108.69196467
_cell_formula_units_Z   1
loop_
 _symmetry_equiv_pos_site_id
 _symmetry_equiv_pos_as_xyz
  1  'x, y, z'
loop_
 _atom_site_type_symbol
 _atom_site_label
 _atom_site_symmetry_multiplicity
 _atom_site_fract_x
 _atom_site_fract_y
 _atom_site_fract_z
 _atom_site_occupancy
  F  F0  1  0.00000000  0.50000000  0.00000000  1
  F  F1  1  0.50000000  0.00000000  0.00000000  1
  F  F2  1  0.84788743  0.84788743  0.69577487  1
  F  F3  1  0.15211257  0.15211257  0.30422513  1
  Mg  Mg4  1  0.00000000  0.00000000  0.00000000  1
  K  K5  1  0.64816486  0.64816486  0.29632973  1
  K  K6  1  0.35183514  0.35183514  0.70367027  1
