# generated using pymatgen
data_Sb7Pd20
_symmetry_space_group_name_H-M   'P 1'
_cell_length_a   7.83355813
_cell_length_b   7.83355813
_cell_length_c   7.83355812
_cell_angle_alpha   99.14810229
_cell_angle_beta   99.14810230
_cell_angle_gamma   99.14810230
_symmetry_Int_Tables_number   1
_chemical_formula_structural   Sb7Pd20
_chemical_formula_sum   'Sb7 Pd20'
_cell_volume   460.10424923
_cell_formula_units_Z   1
loop_
 _symmetry_equiv_pos_site_id
 _symmetry_equiv_pos_as_xyz
  1  'x, y, z'
loop_
 _atom_site_type_symbol
 _atom_site_label
 _atom_site_symmetry_multiplicity
 _atom_site_fract_x
 _atom_site_fract_y
 _atom_site_fract_z
 _atom_site_occupancy
  Pd  Pd0  1  0.37704551  0.37704551  0.37704551  1
  Pd  Pd1  1  0.62295449  0.62295449  0.62295449  1
  Pd  Pd2  1  0.33949572  0.00089150  0.22481164  1
  Pd  Pd3  1  0.22481164  0.33949572  0.00089150  1
  Pd  Pd4  1  0.00089150  0.22481164  0.33949572  1
  Pd  Pd5  1  0.66050428  0.99910850  0.77518836  1
  Pd  Pd6  1  0.77518836  0.66050428  0.99910850  1
  Pd  Pd7  1  0.99910850  0.77518836  0.66050428  1
  Pd  Pd8  1  0.14442396  0.68862170  0.98813261  1
  Pd  Pd9  1  0.98813261  0.14442396  0.68862170  1
  Pd  Pd10  1  0.68862170  0.98813261  0.14442396  1
  Pd  Pd11  1  0.85557604  0.31137830  0.01186739  1
  Pd  Pd12  1  0.01186739  0.85557604  0.31137830  1
  Pd  Pd13  1  0.31137830  0.01186739  0.85557604  1
  Pd  Pd14  1  0.66402758  0.20727533  0.47691974  1
  Pd  Pd15  1  0.47691974  0.66402758  0.20727533  1
  Pd  Pd16  1  0.20727533  0.47691974  0.66402758  1
  Pd  Pd17  1  0.33597242  0.79272467  0.52308026  1
  Pd  Pd18  1  0.52308026  0.33597242  0.79272467  1
  Pd  Pd19  1  0.79272467  0.52308026  0.33597242  1
  Sb  Sb20  1  0.00000000  0.00000000  0.00000000  1
  Sb  Sb21  1  0.87729481  0.45484254  0.72506868  1
  Sb  Sb22  1  0.72506868  0.87729481  0.45484254  1
  Sb  Sb23  1  0.45484254  0.72506868  0.87729481  1
  Sb  Sb24  1  0.12270519  0.54515746  0.27493132  1
  Sb  Sb25  1  0.27493132  0.12270519  0.54515746  1
  Sb  Sb26  1  0.54515746  0.27493132  0.12270519  1
