# generated using pymatgen
data_Mg2Zn11
_symmetry_space_group_name_H-M   'P 1'
_cell_length_a   8.55051764
_cell_length_b   8.55051764
_cell_length_c   8.55051764
_cell_angle_alpha   90.00000000
_cell_angle_beta   90.00000000
_cell_angle_gamma   90.00000000
_symmetry_Int_Tables_number   1
_chemical_formula_structural   Mg2Zn11
_chemical_formula_sum   'Mg6 Zn33'
_cell_volume   625.13990421
_cell_formula_units_Z   3
loop_
 _symmetry_equiv_pos_site_id
 _symmetry_equiv_pos_as_xyz
  1  'x, y, z'
loop_
 _atom_site_type_symbol
 _atom_site_label
 _atom_site_symmetry_multiplicity
 _atom_site_fract_x
 _atom_site_fract_y
 _atom_site_fract_z
 _atom_site_occupancy
  Mg  Mg0  1  0.30247024  0.00000000  0.50000000  1
  Mg  Mg1  1  0.50000000  0.30247024  0.00000000  1
  Mg  Mg2  1  0.00000000  0.50000000  0.30247024  1
  Mg  Mg3  1  0.50000000  0.69752976  0.00000000  1
  Mg  Mg4  1  0.00000000  0.50000000  0.69752976  1
  Mg  Mg5  1  0.69752976  0.00000000  0.50000000  1
  Zn  Zn6  1  0.50000000  0.50000000  0.50000000  1
  Zn  Zn7  1  0.22996260  0.00000000  0.00000000  1
  Zn  Zn8  1  0.00000000  0.22996260  0.00000000  1
  Zn  Zn9  1  0.00000000  0.00000000  0.22996260  1
  Zn  Zn10  1  0.00000000  0.77003740  0.00000000  1
  Zn  Zn11  1  0.00000000  0.00000000  0.77003740  1
  Zn  Zn12  1  0.77003740  0.00000000  0.00000000  1
  Zn  Zn13  1  0.15983724  0.50000000  0.00000000  1
  Zn  Zn14  1  0.00000000  0.15983724  0.50000000  1
  Zn  Zn15  1  0.50000000  0.00000000  0.15983724  1
  Zn  Zn16  1  0.00000000  0.84016276  0.50000000  1
  Zn  Zn17  1  0.50000000  0.00000000  0.84016276  1
  Zn  Zn18  1  0.84016276  0.50000000  0.00000000  1
  Zn  Zn19  1  0.21820461  0.21820461  0.21820461  1
  Zn  Zn20  1  0.78179539  0.78179539  0.21820461  1
  Zn  Zn21  1  0.21820461  0.78179539  0.78179539  1
  Zn  Zn22  1  0.78179539  0.21820461  0.78179539  1
  Zn  Zn23  1  0.78179539  0.78179539  0.78179539  1
  Zn  Zn24  1  0.21820461  0.21820461  0.78179539  1
  Zn  Zn25  1  0.78179539  0.21820461  0.21820461  1
  Zn  Zn26  1  0.21820461  0.78179539  0.21820461  1
  Zn  Zn27  1  0.50000000  0.23525159  0.34176541  1
  Zn  Zn28  1  0.34176541  0.50000000  0.23525159  1
  Zn  Zn29  1  0.23525159  0.34176541  0.50000000  1
  Zn  Zn30  1  0.76474841  0.65823459  0.50000000  1
  Zn  Zn31  1  0.34176541  0.50000000  0.76474841  1
  Zn  Zn32  1  0.76474841  0.34176541  0.50000000  1
  Zn  Zn33  1  0.65823459  0.50000000  0.23525159  1
  Zn  Zn34  1  0.65823459  0.50000000  0.76474841  1
  Zn  Zn35  1  0.23525159  0.65823459  0.50000000  1
  Zn  Zn36  1  0.50000000  0.76474841  0.65823459  1
  Zn  Zn37  1  0.50000000  0.23525159  0.65823459  1
  Zn  Zn38  1  0.50000000  0.76474841  0.34176541  1
