# generated using pymatgen
data_LiMnO2
_symmetry_space_group_name_H-M   'P 1'
_cell_length_a   5.94481450
_cell_length_b   7.88363556
_cell_length_c   5.18133685
_cell_angle_alpha   29.15788468
_cell_angle_beta   55.00035110
_cell_angle_gamma   41.09182498
_symmetry_Int_Tables_number   1
_chemical_formula_structural   LiMnO2
_chemical_formula_sum   'Li2 Mn2 O4'
_cell_volume   75.00129512
_cell_formula_units_Z   2
loop_
 _symmetry_equiv_pos_site_id
 _symmetry_equiv_pos_as_xyz
  1  'x, y, z'
loop_
 _atom_site_type_symbol
 _atom_site_label
 _atom_site_symmetry_multiplicity
 _atom_site_fract_x
 _atom_site_fract_y
 _atom_site_fract_z
 _atom_site_occupancy
  Li  Li0  1  0.24847507  0.50135999  0.99789328  1
  Li  Li1  1  0.49839128  0.00018267  0.99959023  1
  Mn  Mn2  1  0.99878511  0.00048793  0.99850572  1
  Mn  Mn3  1  0.74873856  0.50090390  0.99795893  1
  O  O4  1  0.22971184  0.00091615  0.53602629  1
  O  O5  1  0.76777656  0.00089413  0.45983009  1
  O  O6  1  0.51788524  0.50046340  0.46025477  1
  O  O7  1  0.97970734  0.50056682  0.53645469  1
