# generated using pymatgen
data_TaCuS3
_symmetry_space_group_name_H-M   'P 1'
_cell_length_a   3.51050694
_cell_length_b   9.61262144
_cell_length_c   11.95122634
_cell_angle_alpha   90.00000000
_cell_angle_beta   90.00000000
_cell_angle_gamma   90.00000000
_symmetry_Int_Tables_number   1
_chemical_formula_structural   TaCuS3
_chemical_formula_sum   'Ta4 Cu4 S12'
_cell_volume   403.29621566
_cell_formula_units_Z   4
loop_
 _symmetry_equiv_pos_site_id
 _symmetry_equiv_pos_as_xyz
  1  'x, y, z'
loop_
 _atom_site_type_symbol
 _atom_site_label
 _atom_site_symmetry_multiplicity
 _atom_site_fract_x
 _atom_site_fract_y
 _atom_site_fract_z
 _atom_site_occupancy
  S  S0  1  0.75000000  0.57992770  0.59800026  1
  S  S1  1  0.25000000  0.41612547  0.82257480  1
  S  S2  1  0.75000000  0.58387453  0.17742520  1
  S  S3  1  0.25000000  0.91612547  0.67742520  1
  S  S4  1  0.75000000  0.22212202  0.59717370  1
  S  S5  1  0.25000000  0.77787798  0.40282630  1
  S  S6  1  0.75000000  0.72212202  0.90282630  1
  S  S7  1  0.25000000  0.27787798  0.09717370  1
  S  S8  1  0.75000000  0.07992770  0.90199974  1
  S  S9  1  0.25000000  0.92007230  0.09800026  1
  S  S10  1  0.25000000  0.42007230  0.40199974  1
  S  S11  1  0.75000000  0.08387453  0.32257480  1
  Cu  Cu12  1  0.75000000  0.26974289  0.78495119  1
  Cu  Cu13  1  0.25000000  0.23025711  0.28495119  1
  Cu  Cu14  1  0.75000000  0.76974289  0.71504881  1
  Cu  Cu15  1  0.25000000  0.73025711  0.21504881  1
  Ta  Ta16  1  0.75000000  0.10713371  0.13100564  1
  Ta  Ta17  1  0.25000000  0.89286629  0.86899436  1
  Ta  Ta18  1  0.75000000  0.60713371  0.36899436  1
  Ta  Ta19  1  0.25000000  0.39286629  0.63100564  1
