# generated using pymatgen
data_Ti3AlC2
_symmetry_space_group_name_H-M   'P 1'
_cell_length_a   3.08137451
_cell_length_b   3.08137452
_cell_length_c   18.67882315
_cell_angle_alpha   90.00000000
_cell_angle_beta   90.00000000
_cell_angle_gamma   120.00000003
_symmetry_Int_Tables_number   1
_chemical_formula_structural   Ti3AlC2
_chemical_formula_sum   'Ti6 Al2 C4'
_cell_volume   153.59218339
_cell_formula_units_Z   2
loop_
 _symmetry_equiv_pos_site_id
 _symmetry_equiv_pos_as_xyz
  1  'x, y, z'
loop_
 _atom_site_type_symbol
 _atom_site_label
 _atom_site_symmetry_multiplicity
 _atom_site_fract_x
 _atom_site_fract_y
 _atom_site_fract_z
 _atom_site_occupancy
  C  C0  1  0.33333333  0.66666667  0.43073163  1
  C  C1  1  0.66666667  0.33333333  0.93073163  1
  C  C2  1  0.33333333  0.66666667  0.06926837  1
  C  C3  1  0.66666667  0.33333333  0.56926837  1
  Al  Al4  1  0.00000000  0.00000000  0.75000000  1
  Al  Al5  1  0.00000000  0.00000000  0.25000000  1
  Ti  Ti6  1  0.66666667  0.33333333  0.37324579  1
  Ti  Ti7  1  0.33333333  0.66666667  0.87324579  1
  Ti  Ti8  1  0.33333333  0.66666667  0.62675421  1
  Ti  Ti9  1  0.66666667  0.33333333  0.12675421  1
  Ti  Ti10  1  0.00000000  0.00000000  0.50000000  1
  Ti  Ti11  1  0.00000000  0.00000000  0.00000000  1
