# generated using pymatgen
data_NaNbO2
_symmetry_space_group_name_H-M   'P 1'
_cell_length_a   2.99387041
_cell_length_b   2.99387041
_cell_length_c   11.68566210
_cell_angle_alpha   90.00000000
_cell_angle_beta   90.00000000
_cell_angle_gamma   119.99999992
_symmetry_Int_Tables_number   1
_chemical_formula_structural   NaNbO2
_chemical_formula_sum   'Na2 Nb2 O4'
_cell_volume   90.70891070
_cell_formula_units_Z   2
loop_
 _symmetry_equiv_pos_site_id
 _symmetry_equiv_pos_as_xyz
  1  'x, y, z'
loop_
 _atom_site_type_symbol
 _atom_site_label
 _atom_site_symmetry_multiplicity
 _atom_site_fract_x
 _atom_site_fract_y
 _atom_site_fract_z
 _atom_site_occupancy
  O  O0  1  0.33333333  0.66666667  0.36300949  1
  O  O1  1  0.66666667  0.33333333  0.86300949  1
  O  O2  1  0.33333333  0.66666667  0.13699051  1
  O  O3  1  0.66666667  0.33333333  0.63699051  1
  Na  Na4  1  0.00000000  0.00000000  0.00000000  1
  Na  Na5  1  0.00000000  0.00000000  0.50000000  1
  Nb  Nb6  1  0.33333333  0.66666667  0.75000000  1
  Nb  Nb7  1  0.66666667  0.33333333  0.25000000  1
