# generated using pymatgen
data_TaPt3
_symmetry_space_group_name_H-M   'P 1'
_cell_length_a   4.61417194
_cell_length_b   4.93414852
_cell_length_c   5.61376897
_cell_angle_alpha   90.00000000
_cell_angle_beta   90.00000000
_cell_angle_gamma   90.00000000
_symmetry_Int_Tables_number   1
_chemical_formula_structural   TaPt3
_chemical_formula_sum   'Ta2 Pt6'
_cell_volume   127.80873231
_cell_formula_units_Z   2
loop_
 _symmetry_equiv_pos_site_id
 _symmetry_equiv_pos_as_xyz
  1  'x, y, z'
loop_
 _atom_site_type_symbol
 _atom_site_label
 _atom_site_symmetry_multiplicity
 _atom_site_fract_x
 _atom_site_fract_y
 _atom_site_fract_z
 _atom_site_occupancy
  Ta  Ta0  1  0.75000000  0.33962768  0.75000000  1
  Ta  Ta1  1  0.25000000  0.66037232  0.25000000  1
  Pt  Pt2  1  0.25000000  0.16621215  0.50012679  1
  Pt  Pt3  1  0.75000000  0.83378785  0.49987321  1
  Pt  Pt4  1  0.25000000  0.16621215  -0.00012679  1
  Pt  Pt5  1  0.75000000  0.83378785  1.00012679  1
  Pt  Pt6  1  0.25000000  0.65828650  0.75000000  1
  Pt  Pt7  1  0.75000000  0.34171350  0.25000000  1
