# generated using pymatgen
data_CuAuSe4
_symmetry_space_group_name_H-M   'P 1'
_cell_length_a   4.45460028
_cell_length_b   7.53639199
_cell_length_c   8.21256953
_cell_angle_alpha   90.00000000
_cell_angle_beta   93.45901860
_cell_angle_gamma   90.00000000
_symmetry_Int_Tables_number   1
_chemical_formula_structural   CuAuSe4
_chemical_formula_sum   'Cu2 Au2 Se8'
_cell_volume   275.20692887
_cell_formula_units_Z   2
loop_
 _symmetry_equiv_pos_site_id
 _symmetry_equiv_pos_as_xyz
  1  'x, y, z'
loop_
 _atom_site_type_symbol
 _atom_site_label
 _atom_site_symmetry_multiplicity
 _atom_site_fract_x
 _atom_site_fract_y
 _atom_site_fract_z
 _atom_site_occupancy
  Cu  Cu0  1  0.02976142  0.75000000  0.65913980  1
  Cu  Cu1  1  0.97023858  0.25000000  0.34086020  1
  Se  Se2  1  0.40393949  0.99723670  0.69362694  1
  Se  Se3  1  0.59606051  0.49723670  0.30637306  1
  Se  Se4  1  0.59606051  0.00276330  0.30637306  1
  Se  Se5  1  0.40393949  0.50276330  0.69362694  1
  Se  Se6  1  0.07028069  0.25000000  0.63334611  1
  Se  Se7  1  0.92971931  0.75000000  0.36665389  1
  Se  Se8  1  0.14747708  0.25000000  0.06693986  1
  Se  Se9  1  0.85252292  0.75000000  0.93306014  1
  Au  Au10  1  0.50000000  0.50000000  0.00000000  1
  Au  Au11  1  0.50000000  0.00000000  0.00000000  1
