# generated using pymatgen
data_Hf2Ga
_symmetry_space_group_name_H-M   'P 1'
_cell_length_a   5.29151382
_cell_length_b   5.43377828
_cell_length_c   5.43377828
_cell_angle_alpha   76.28570016
_cell_angle_beta   60.86236283
_cell_angle_gamma   60.86236278
_symmetry_Int_Tables_number   1
_chemical_formula_structural   Hf2Ga
_chemical_formula_sum   'Hf4 Ga2'
_cell_volume   119.19620002
_cell_formula_units_Z   2
loop_
 _symmetry_equiv_pos_site_id
 _symmetry_equiv_pos_as_xyz
  1  'x, y, z'
loop_
 _atom_site_type_symbol
 _atom_site_label
 _atom_site_symmetry_multiplicity
 _atom_site_fract_x
 _atom_site_fract_y
 _atom_site_fract_z
 _atom_site_occupancy
  Ga  Ga0  1  0.25000000  0.00000000  0.00000000  1
  Ga  Ga1  1  0.75000000  0.00000000  0.00000000  1
  Hf  Hf2  1  0.15368784  0.50000000  0.19262432  1
  Hf  Hf3  1  0.34631216  0.80737568  0.50000000  1
  Hf  Hf4  1  0.65368784  0.19262432  0.50000000  1
  Hf  Hf5  1  0.84631216  0.50000000  0.80737568  1
