# generated using pymatgen
data_Al2HgSe4
_symmetry_space_group_name_H-M   'P 1'
_cell_length_a   5.88064262
_cell_length_b   5.88064262
_cell_length_c   6.86469538
_cell_angle_alpha   115.36131341
_cell_angle_beta   115.36131345
_cell_angle_gamma   89.99999999
_symmetry_Int_Tables_number   1
_chemical_formula_structural   Al2HgSe4
_chemical_formula_sum   'Al2 Hg1 Se4'
_cell_volume   188.88544915
_cell_formula_units_Z   1
loop_
 _symmetry_equiv_pos_site_id
 _symmetry_equiv_pos_as_xyz
  1  'x, y, z'
loop_
 _atom_site_type_symbol
 _atom_site_label
 _atom_site_symmetry_multiplicity
 _atom_site_fract_x
 _atom_site_fract_y
 _atom_site_fract_z
 _atom_site_occupancy
  Al  Al0  1  0.25000000  0.75000000  0.50000000  1
  Al  Al1  1  0.50000000  0.50000000  0.00000000  1
  Se  Se2  1  0.13188157  0.13448902  0.72374266  1
  Se  Se3  1  0.59186109  0.58925364  0.72374266  1
  Se  Se4  1  0.86551098  0.40813891  0.27625734  1
  Se  Se5  1  0.41074636  0.86811843  0.27625734  1
  Hg  Hg6  1  0.00000000  0.00000000  0.00000000  1
