# generated using pymatgen
data_MnPd3
_symmetry_space_group_name_H-M   'P 1'
_cell_length_a   3.93940473
_cell_length_b   3.93940411
_cell_length_c   8.33618196
_cell_angle_alpha   103.66728787
_cell_angle_beta   103.66728551
_cell_angle_gamma   90.00000043
_symmetry_Int_Tables_number   1
_chemical_formula_structural   MnPd3
_chemical_formula_sum   'Mn2 Pd6'
_cell_volume   121.93208714
_cell_formula_units_Z   2
loop_
 _symmetry_equiv_pos_site_id
 _symmetry_equiv_pos_as_xyz
  1  'x, y, z'
loop_
 _atom_site_type_symbol
 _atom_site_label
 _atom_site_symmetry_multiplicity
 _atom_site_fract_x
 _atom_site_fract_y
 _atom_site_fract_z
 _atom_site_occupancy
  Mn  Mn0  1  0.12443668  0.12443668  0.24887336  1
  Mn  Mn1  1  0.87556332  0.87556332  0.75112664  1
  Pd  Pd2  1  0.37458469  0.37458469  0.74916938  1
  Pd  Pd3  1  0.62541531  0.62541531  0.25083062  1
  Pd  Pd4  1  0.50000000  0.00000000  0.00000000  1
  Pd  Pd5  1  0.00000000  0.50000000  0.00000000  1
  Pd  Pd6  1  0.75000000  0.25000000  0.50000000  1
  Pd  Pd7  1  0.25000000  0.75000000  0.50000000  1
