# generated using pymatgen
data_BaZrN2
_symmetry_space_group_name_H-M   'P 1'
_cell_length_a   4.20427845
_cell_length_b   4.20427845
_cell_length_c   8.48689969
_cell_angle_alpha   90.00000000
_cell_angle_beta   90.00000000
_cell_angle_gamma   90.00000000
_symmetry_Int_Tables_number   1
_chemical_formula_structural   BaZrN2
_chemical_formula_sum   'Ba2 Zr2 N4'
_cell_volume   150.01407640
_cell_formula_units_Z   2
loop_
 _symmetry_equiv_pos_site_id
 _symmetry_equiv_pos_as_xyz
  1  'x, y, z'
loop_
 _atom_site_type_symbol
 _atom_site_label
 _atom_site_symmetry_multiplicity
 _atom_site_fract_x
 _atom_site_fract_y
 _atom_site_fract_z
 _atom_site_occupancy
  N  N0  1  0.75000000  0.75000000  0.82451156  1
  N  N1  1  0.25000000  0.25000000  0.17548844  1
  N  N2  1  0.75000000  0.25000000  0.50000000  1
  N  N3  1  0.25000000  0.75000000  0.50000000  1
  Zr  Zr4  1  0.25000000  0.25000000  0.41286220  1
  Zr  Zr5  1  0.75000000  0.75000000  0.58713780  1
  Ba  Ba6  1  0.75000000  0.75000000  0.15258263  1
  Ba  Ba7  1  0.25000000  0.25000000  0.84741737  1
