# generated using pymatgen
data_Ni4W
_symmetry_space_group_name_H-M   'P 1'
_cell_length_a   3.55248233
_cell_length_b   4.42852726
_cell_length_c   4.42852726
_cell_angle_alpha   80.74238385
_cell_angle_beta   66.35361796
_cell_angle_gamma   66.35361797
_symmetry_Int_Tables_number   1
_chemical_formula_structural   Ni4W
_chemical_formula_sum   'Ni4 W1'
_cell_volume   58.46256604
_cell_formula_units_Z   1
loop_
 _symmetry_equiv_pos_site_id
 _symmetry_equiv_pos_as_xyz
  1  'x, y, z'
loop_
 _atom_site_type_symbol
 _atom_site_label
 _atom_site_symmetry_multiplicity
 _atom_site_fract_x
 _atom_site_fract_y
 _atom_site_fract_z
 _atom_site_occupancy
  Ni  Ni0  1  0.19919349  0.20121113  0.40040190  1
  Ni  Ni1  1  0.59959538  0.59959810  0.20121113  1
  Ni  Ni2  1  0.40040462  0.40040190  0.79878887  1
  Ni  Ni3  1  0.80080651  0.79878887  0.59959810  1
  W  W4  1  0.00000000  0.00000000  0.00000000  1
