# generated using pymatgen
data_V4Zn5
_symmetry_space_group_name_H-M   'P 1'
_cell_length_a   3.18295177
_cell_length_b   6.49961047
_cell_length_c   6.49961047
_cell_angle_alpha   86.56276802
_cell_angle_beta   75.82660641
_cell_angle_gamma   75.82660641
_symmetry_Int_Tables_number   1
_chemical_formula_structural   V4Zn5
_chemical_formula_sum   'V4 Zn5'
_cell_volume   126.40182484
_cell_formula_units_Z   1
loop_
 _symmetry_equiv_pos_site_id
 _symmetry_equiv_pos_as_xyz
  1  'x, y, z'
loop_
 _atom_site_type_symbol
 _atom_site_label
 _atom_site_symmetry_multiplicity
 _atom_site_fract_x
 _atom_site_fract_y
 _atom_site_fract_z
 _atom_site_occupancy
  V  V0  1  -0.00000000  0.34436756  0.65563244  1
  V  V1  1  0.00000000  0.65563244  0.34436756  1
  V  V2  1  0.65563244  0.34436756  0.34436756  1
  V  V3  1  0.34436756  0.65563244  0.65563244  1
  Zn  Zn4  1  -0.00000000  -0.00000000  0.00000000  1
  Zn  Zn5  1  0.32971519  0.00000000  0.34056962  1
  Zn  Zn6  1  0.67028481  -0.00000000  0.65943038  1
  Zn  Zn7  1  0.67028481  0.65943038  0.00000000  1
  Zn  Zn8  1  0.32971519  0.34056962  -0.00000000  1
