# generated using pymatgen
data_Ca3Zn
_symmetry_space_group_name_H-M   'P 1'
_cell_length_a   4.08756963
_cell_length_b   6.92315377
_cell_length_c   10.14500491
_cell_angle_alpha   90.00000000
_cell_angle_beta   90.00000000
_cell_angle_gamma   107.17013548
_symmetry_Int_Tables_number   1
_chemical_formula_structural   Ca3Zn
_chemical_formula_sum   'Ca6 Zn2'
_cell_volume   274.29718583
_cell_formula_units_Z   2
loop_
 _symmetry_equiv_pos_site_id
 _symmetry_equiv_pos_as_xyz
  1  'x, y, z'
loop_
 _atom_site_type_symbol
 _atom_site_label
 _atom_site_symmetry_multiplicity
 _atom_site_fract_x
 _atom_site_fract_y
 _atom_site_fract_z
 _atom_site_occupancy
  Ca  Ca0  1  0.43154882  0.86309765  0.75000000  1
  Ca  Ca1  1  0.56845118  0.13690235  0.25000000  1
  Ca  Ca2  1  0.14215232  0.28430464  0.93943062  1
  Ca  Ca3  1  0.85784768  0.71569536  0.06056938  1
  Ca  Ca4  1  0.85784768  0.71569536  0.43943062  1
  Ca  Ca5  1  0.14215232  0.28430464  0.56056938  1
  Zn  Zn6  1  0.75284893  0.50569786  0.75000000  1
  Zn  Zn7  1  0.24715107  0.49430214  0.25000000  1
