# generated using pymatgen
data_Ca2SiIr2
_symmetry_space_group_name_H-M   'P 1'
_cell_length_a   5.69177642
_cell_length_b   5.69177671
_cell_length_c   7.33574785
_cell_angle_alpha   81.09753964
_cell_angle_beta   81.09753915
_cell_angle_gamma   61.95189007
_symmetry_Int_Tables_number   1
_chemical_formula_structural   Ca2SiIr2
_chemical_formula_sum   'Ca4 Si2 Ir4'
_cell_volume   206.29507150
_cell_formula_units_Z   2
loop_
 _symmetry_equiv_pos_site_id
 _symmetry_equiv_pos_as_xyz
  1  'x, y, z'
loop_
 _atom_site_type_symbol
 _atom_site_label
 _atom_site_symmetry_multiplicity
 _atom_site_fract_x
 _atom_site_fract_y
 _atom_site_fract_z
 _atom_site_occupancy
  Ca  Ca0  1  0.72406357  0.98340148  0.14022216  1
  Ca  Ca1  1  0.01659852  0.27593643  0.35977784  1
  Ca  Ca2  1  0.27593643  0.01659852  0.85977784  1
  Ca  Ca3  1  0.98340148  0.72406357  0.64022216  1
  Ir  Ir4  1  0.77452682  0.49016924  0.99010785  1
  Ir  Ir5  1  0.50983076  0.22547318  0.50989215  1
  Ir  Ir6  1  0.22547318  0.50983076  0.00989215  1
  Ir  Ir7  1  0.49016924  0.77452682  0.49010785  1
  Si  Si8  1  0.56548173  0.43451827  0.75000000  1
  Si  Si9  1  0.43451827  0.56548173  0.25000000  1
