# generated using pymatgen
data_Ir3W
_symmetry_space_group_name_H-M   'P 1'
_cell_length_a   5.55253495
_cell_length_b   5.55253495
_cell_length_c   4.43467896
_cell_angle_alpha   90.00000000
_cell_angle_beta   90.00000000
_cell_angle_gamma   119.99999997
_symmetry_Int_Tables_number   1
_chemical_formula_structural   Ir3W
_chemical_formula_sum   'Ir6 W2'
_cell_volume   118.40646584
_cell_formula_units_Z   2
loop_
 _symmetry_equiv_pos_site_id
 _symmetry_equiv_pos_as_xyz
  1  'x, y, z'
loop_
 _atom_site_type_symbol
 _atom_site_label
 _atom_site_symmetry_multiplicity
 _atom_site_fract_x
 _atom_site_fract_y
 _atom_site_fract_z
 _atom_site_occupancy
  W  W0  1  0.66666667  0.33333333  0.75000000  1
  W  W1  1  0.33333333  0.66666667  0.25000000  1
  Ir  Ir2  1  0.66694021  0.83347011  0.75000000  1
  Ir  Ir3  1  0.33305979  0.16652989  0.25000000  1
  Ir  Ir4  1  0.83347011  0.16652989  0.25000000  1
  Ir  Ir5  1  0.16652989  0.33305979  0.75000000  1
  Ir  Ir6  1  0.16652989  0.83347011  0.75000000  1
  Ir  Ir7  1  0.83347011  0.66694021  0.25000000  1
