# generated using pymatgen
data_Sc3FeC4
_symmetry_space_group_name_H-M   'P 1'
_cell_length_a   3.39362487
_cell_length_b   4.35622933
_cell_length_c   6.65642683
_cell_angle_alpha   109.10011533
_cell_angle_beta   104.76845415
_cell_angle_gamma   89.99999994
_symmetry_Int_Tables_number   1
_chemical_formula_structural   Sc3FeC4
_chemical_formula_sum   'Sc3 Fe1 C4'
_cell_volume   89.53994659
_cell_formula_units_Z   1
loop_
 _symmetry_equiv_pos_site_id
 _symmetry_equiv_pos_as_xyz
  1  'x, y, z'
loop_
 _atom_site_type_symbol
 _atom_site_label
 _atom_site_symmetry_multiplicity
 _atom_site_fract_x
 _atom_site_fract_y
 _atom_site_fract_z
 _atom_site_occupancy
  C  C0  1  0.37608434  0.21028345  0.75216868  1
  C  C1  1  0.62391566  0.78971655  0.24783132  1
  C  C2  1  0.62391566  0.45811477  0.24783132  1
  C  C3  1  0.37608434  0.54188523  0.75216868  1
  Sc  Sc4  1  0.00000000  0.50000000  0.00000000  1
  Sc  Sc5  1  0.18849985  0.18849985  0.37699969  1
  Sc  Sc6  1  0.81150015  0.81150015  0.62300031  1
  Fe  Fe7  1  0.50000000  0.00000000  0.00000000  1
