# generated using pymatgen
data_SiPd
_symmetry_space_group_name_H-M   'P 1'
_cell_length_a   3.46932039
_cell_length_b   5.64445446
_cell_length_c   6.16232316
_cell_angle_alpha   90.00000000
_cell_angle_beta   90.00000000
_cell_angle_gamma   90.00000000
_symmetry_Int_Tables_number   1
_chemical_formula_structural   SiPd
_chemical_formula_sum   'Si4 Pd4'
_cell_volume   120.67320614
_cell_formula_units_Z   4
loop_
 _symmetry_equiv_pos_site_id
 _symmetry_equiv_pos_as_xyz
  1  'x, y, z'
loop_
 _atom_site_type_symbol
 _atom_site_label
 _atom_site_symmetry_multiplicity
 _atom_site_fract_x
 _atom_site_fract_y
 _atom_site_fract_z
 _atom_site_occupancy
  Si  Si0  1  0.25000000  0.67682827  0.92726047  1
  Si  Si1  1  0.75000000  0.32317173  0.07273953  1
  Si  Si2  1  0.25000000  0.17682827  0.57273953  1
  Si  Si3  1  0.75000000  0.82317173  0.42726047  1
  Pd  Pd4  1  0.25000000  0.50400301  0.30912251  1
  Pd  Pd5  1  0.75000000  0.49599699  0.69087749  1
  Pd  Pd6  1  0.25000000  0.00400301  0.19087749  1
  Pd  Pd7  1  0.75000000  0.99599699  0.80912251  1
