# generated using pymatgen
data_K2PtF6
_symmetry_space_group_name_H-M   'P 1'
_cell_length_a   5.90755470
_cell_length_b   5.90755470
_cell_length_c   4.75350300
_cell_angle_alpha   90.00000000
_cell_angle_beta   90.00000000
_cell_angle_gamma   119.99999997
_symmetry_Int_Tables_number   1
_chemical_formula_structural   K2PtF6
_chemical_formula_sum   'K2 Pt1 F6'
_cell_volume   143.66795425
_cell_formula_units_Z   1
loop_
 _symmetry_equiv_pos_site_id
 _symmetry_equiv_pos_as_xyz
  1  'x, y, z'
loop_
 _atom_site_type_symbol
 _atom_site_label
 _atom_site_symmetry_multiplicity
 _atom_site_fract_x
 _atom_site_fract_y
 _atom_site_fract_z
 _atom_site_occupancy
  F  F0  1  0.83702876  0.16297124  0.77635211  1
  F  F1  1  0.83702876  0.67405752  0.77635211  1
  F  F2  1  0.32594248  0.16297124  0.77635211  1
  F  F3  1  0.16297124  0.83702876  0.22364789  1
  F  F4  1  0.16297124  0.32594248  0.22364789  1
  F  F5  1  0.67405752  0.83702876  0.22364789  1
  K  K6  1  0.66666667  0.33333333  0.28530219  1
  K  K7  1  0.33333333  0.66666667  0.71469781  1
  Pt  Pt8  1  0.00000000  0.00000000  0.00000000  1
