# generated using pymatgen
data_Sc2FeSi2
_symmetry_space_group_name_H-M   'P 1'
_cell_length_a   3.98520463
_cell_length_b   5.33093062
_cell_length_c   8.51717049
_cell_angle_alpha   82.20491835
_cell_angle_beta   76.47019188
_cell_angle_gamma   68.05098870
_symmetry_Int_Tables_number   1
_chemical_formula_structural   Sc2FeSi2
_chemical_formula_sum   'Sc4 Fe2 Si4'
_cell_volume   162.93979887
_cell_formula_units_Z   2
loop_
 _symmetry_equiv_pos_site_id
 _symmetry_equiv_pos_as_xyz
  1  'x, y, z'
loop_
 _atom_site_type_symbol
 _atom_site_label
 _atom_site_symmetry_multiplicity
 _atom_site_fract_x
 _atom_site_fract_y
 _atom_site_fract_z
 _atom_site_occupancy
  Si  Si0  1  0.49314026  0.13976651  0.87395298  1
  Si  Si1  1  0.35351026  0.72783013  0.56514935  1
  Si  Si2  1  0.50685974  0.86023349  0.12604702  1
  Si  Si3  1  0.64648974  0.27216987  0.43485065  1
  Sc  Sc4  1  0.81490631  0.26220595  0.10798143  1
  Sc  Sc5  1  0.00074368  0.67067656  0.32783608  1
  Sc  Sc6  1  0.18509369  0.73779405  0.89201857  1
  Sc  Sc7  1  0.99925632  0.32932344  0.67216392  1
  Fe  Fe8  1  0.72932726  0.91470231  0.62664318  1
  Fe  Fe9  1  0.27067274  0.08529769  0.37335682  1
