# generated using pymatgen
data_Y2Si2Rh
_symmetry_space_group_name_H-M   'P 1'
_cell_length_a   4.22241337
_cell_length_b   5.70417640
_cell_length_c   9.12261849
_cell_angle_alpha   82.37337927
_cell_angle_beta   76.61898768
_cell_angle_gamma   68.27723136
_symmetry_Int_Tables_number   1
_chemical_formula_structural   Y2Si2Rh
_chemical_formula_sum   'Y4 Si4 Rh2'
_cell_volume   198.30770713
_cell_formula_units_Z   2
loop_
 _symmetry_equiv_pos_site_id
 _symmetry_equiv_pos_as_xyz
  1  'x, y, z'
loop_
 _atom_site_type_symbol
 _atom_site_label
 _atom_site_symmetry_multiplicity
 _atom_site_fract_x
 _atom_site_fract_y
 _atom_site_fract_z
 _atom_site_occupancy
  Si  Si0  1  0.64080259  0.28383815  0.43455667  1
  Si  Si1  1  0.51147511  0.85663920  0.12041058  1
  Si  Si2  1  0.35919741  0.71616185  0.56544333  1
  Si  Si3  1  0.48852489  0.14336080  0.87958942  1
  Y  Y4  1  0.99804072  0.32827339  0.67564517  1
  Y  Y5  1  0.81501270  0.26111783  0.10885677  1
  Y  Y6  1  0.00195928  0.67172661  0.32435483  1
  Y  Y7  1  0.18498730  0.73888217  0.89114323  1
  Rh  Rh8  1  0.27410774  0.07889554  0.37288898  1
  Rh  Rh9  1  0.72589226  0.92110446  0.62711102  1
