# generated using pymatgen
data_Zr3Ga2
_symmetry_space_group_name_H-M   'P 1'
_cell_length_a   3.70616717
_cell_length_b   7.37724654
_cell_length_c   7.37724654
_cell_angle_alpha   90.00000000
_cell_angle_beta   90.00000000
_cell_angle_gamma   90.00000000
_symmetry_Int_Tables_number   1
_chemical_formula_structural   Zr3Ga2
_chemical_formula_sum   'Zr6 Ga4'
_cell_volume   201.70357671
_cell_formula_units_Z   2
loop_
 _symmetry_equiv_pos_site_id
 _symmetry_equiv_pos_as_xyz
  1  'x, y, z'
loop_
 _atom_site_type_symbol
 _atom_site_label
 _atom_site_symmetry_multiplicity
 _atom_site_fract_x
 _atom_site_fract_y
 _atom_site_fract_z
 _atom_site_occupancy
  Ga  Ga0  1  0.00000000  0.37705257  0.87705257  1
  Ga  Ga1  1  0.00000000  0.12294743  0.37705257  1
  Ga  Ga2  1  0.00000000  0.87705257  0.62294743  1
  Ga  Ga3  1  0.00000000  0.62294743  0.12294743  1
  Zr  Zr4  1  0.00000000  0.00000000  0.00000000  1
  Zr  Zr5  1  0.00000000  0.50000000  0.50000000  1
  Zr  Zr6  1  0.50000000  0.17679689  0.67679689  1
  Zr  Zr7  1  0.50000000  0.32320311  0.17679689  1
  Zr  Zr8  1  0.50000000  0.67679689  0.82320311  1
  Zr  Zr9  1  0.50000000  0.82320311  0.32320311  1
