# generated using pymatgen
data_HfO2
_symmetry_space_group_name_H-M   'P 1'
_cell_length_a   5.14231893
_cell_length_b   5.19514767
_cell_length_c   5.32603802
_cell_angle_alpha   90.00000000
_cell_angle_beta   99.67453089
_cell_angle_gamma   90.00000000
_symmetry_Int_Tables_number   1
_chemical_formula_structural   HfO2
_chemical_formula_sum   'Hf4 O8'
_cell_volume   140.26212262
_cell_formula_units_Z   4
loop_
 _symmetry_equiv_pos_site_id
 _symmetry_equiv_pos_as_xyz
  1  'x, y, z'
loop_
 _atom_site_type_symbol
 _atom_site_label
 _atom_site_symmetry_multiplicity
 _atom_site_fract_x
 _atom_site_fract_y
 _atom_site_fract_z
 _atom_site_occupancy
  O  O0  1  0.44888746  0.74260261  0.97770840  1
  O  O1  1  0.55111254  0.24260261  0.52229160  1
  O  O2  1  0.55111254  0.25739739  0.02229160  1
  O  O3  1  0.44888746  0.75739739  0.47770840  1
  O  O4  1  0.06784880  0.33012187  0.34709415  1
  O  O5  1  0.93215120  0.83012187  0.15290585  1
  O  O6  1  0.93215120  0.66987813  0.65290585  1
  O  O7  1  0.06784880  0.16987813  0.84709415  1
  Hf  Hf8  1  0.27595888  0.45731936  0.70789092  1
  Hf  Hf9  1  0.72404112  0.95731936  0.79210908  1
  Hf  Hf10  1  0.72404112  0.54268064  0.29210908  1
  Hf  Hf11  1  0.27595888  0.04268064  0.20789092  1
