# generated using pymatgen
data_SnRh
_symmetry_space_group_name_H-M   'P 1'
_cell_length_a   5.21301203
_cell_length_b   5.21301203
_cell_length_c   5.21301203
_cell_angle_alpha   90.00000000
_cell_angle_beta   90.00000000
_cell_angle_gamma   90.00000000
_symmetry_Int_Tables_number   1
_chemical_formula_structural   SnRh
_chemical_formula_sum   'Sn4 Rh4'
_cell_volume   141.66617936
_cell_formula_units_Z   4
loop_
 _symmetry_equiv_pos_site_id
 _symmetry_equiv_pos_as_xyz
  1  'x, y, z'
loop_
 _atom_site_type_symbol
 _atom_site_label
 _atom_site_symmetry_multiplicity
 _atom_site_fract_x
 _atom_site_fract_y
 _atom_site_fract_z
 _atom_site_occupancy
  Rh  Rh0  1  0.14352268  0.14352268  0.14352268  1
  Rh  Rh1  1  0.35647732  0.85647732  0.64352268  1
  Rh  Rh2  1  0.64352268  0.35647732  0.85647732  1
  Rh  Rh3  1  0.85647732  0.64352268  0.35647732  1
  Sn  Sn4  1  0.83979070  0.83979070  0.83979070  1
  Sn  Sn5  1  0.66020930  0.16020930  0.33979070  1
  Sn  Sn6  1  0.33979070  0.66020930  0.16020930  1
  Sn  Sn7  1  0.16020930  0.33979070  0.66020930  1
