# generated using pymatgen
data_CaGePt
_symmetry_space_group_name_H-M   'P 1'
_cell_length_a   4.44555876
_cell_length_b   7.23380967
_cell_length_c   7.50867042
_cell_angle_alpha   90.00000000
_cell_angle_beta   90.00000000
_cell_angle_gamma   90.00000000
_symmetry_Int_Tables_number   1
_chemical_formula_structural   CaGePt
_chemical_formula_sum   'Ca4 Ge4 Pt4'
_cell_volume   241.46627079
_cell_formula_units_Z   4
loop_
 _symmetry_equiv_pos_site_id
 _symmetry_equiv_pos_as_xyz
  1  'x, y, z'
loop_
 _atom_site_type_symbol
 _atom_site_label
 _atom_site_symmetry_multiplicity
 _atom_site_fract_x
 _atom_site_fract_y
 _atom_site_fract_z
 _atom_site_occupancy
  Ca  Ca0  1  0.75000000  0.00689642  0.30380659  1
  Ca  Ca1  1  0.25000000  0.99310358  0.69619341  1
  Ca  Ca2  1  0.75000000  0.50689642  0.19619341  1
  Ca  Ca3  1  0.25000000  0.49310358  0.80380659  1
  Ge  Ge4  1  0.75000000  0.68019154  0.58325937  1
  Ge  Ge5  1  0.25000000  0.31980846  0.41674063  1
  Ge  Ge6  1  0.75000000  0.18019154  0.91674063  1
  Ge  Ge7  1  0.25000000  0.81980846  0.08325937  1
  Pt  Pt8  1  0.75000000  0.80203960  0.90759006  1
  Pt  Pt9  1  0.25000000  0.19796040  0.09240994  1
  Pt  Pt10  1  0.75000000  0.30203960  0.59240994  1
  Pt  Pt11  1  0.25000000  0.69796040  0.40759006  1
