# generated using pymatgen
data_MgAl2Cu
_symmetry_space_group_name_H-M   'P 1'
_cell_length_a   3.99980413
_cell_length_b   5.05914834
_cell_length_c   7.13124889
_cell_angle_alpha   90.00000000
_cell_angle_beta   90.00000000
_cell_angle_gamma   113.28494121
_symmetry_Int_Tables_number   1
_chemical_formula_structural   MgAl2Cu
_chemical_formula_sum   'Mg2 Al4 Cu2'
_cell_volume   132.55151008
_cell_formula_units_Z   2
loop_
 _symmetry_equiv_pos_site_id
 _symmetry_equiv_pos_as_xyz
  1  'x, y, z'
loop_
 _atom_site_type_symbol
 _atom_site_label
 _atom_site_symmetry_multiplicity
 _atom_site_fract_x
 _atom_site_fract_y
 _atom_site_fract_z
 _atom_site_occupancy
  Mg  Mg0  1  0.06494052  0.12988103  0.75000000  1
  Mg  Mg1  1  0.93505948  0.87011897  0.25000000  1
  Al  Al2  1  0.35599458  0.71198916  0.94518814  1
  Al  Al3  1  0.35599458  0.71198916  0.55481186  1
  Al  Al4  1  0.64400542  0.28801084  0.05481186  1
  Al  Al5  1  0.64400542  0.28801084  0.44518814  1
  Cu  Cu6  1  0.77950291  0.55900582  0.75000000  1
  Cu  Cu7  1  0.22049709  0.44099418  0.25000000  1
