# generated using pymatgen
data_Ta4AlC3
_symmetry_space_group_name_H-M   'P 1'
_cell_length_a   3.10753885
_cell_length_b   3.10753884
_cell_length_c   24.68199342
_cell_angle_alpha   90.00000000
_cell_angle_beta   90.00000000
_cell_angle_gamma   119.99999999
_symmetry_Int_Tables_number   1
_chemical_formula_structural   Ta4AlC3
_chemical_formula_sum   'Ta8 Al2 C6'
_cell_volume   206.41630347
_cell_formula_units_Z   2
loop_
 _symmetry_equiv_pos_site_id
 _symmetry_equiv_pos_as_xyz
  1  'x, y, z'
loop_
 _atom_site_type_symbol
 _atom_site_label
 _atom_site_symmetry_multiplicity
 _atom_site_fract_x
 _atom_site_fract_y
 _atom_site_fract_z
 _atom_site_occupancy
  C  C0  1  0.00000000  0.00000000  0.38973195  1
  C  C1  1  0.00000000  0.00000000  0.88973195  1
  C  C2  1  0.00000000  0.00000000  0.61026805  1
  C  C3  1  0.00000000  0.00000000  0.00000000  1
  C  C4  1  0.00000000  0.00000000  0.11026805  1
  C  C5  1  0.00000000  0.00000000  0.50000000  1
  Al  Al6  1  0.66666667  0.33333333  0.75000000  1
  Al  Al7  1  0.33333333  0.66666667  0.25000000  1
  Ta  Ta8  1  0.66666667  0.33333333  0.34080368  1
  Ta  Ta9  1  0.33333333  0.66666667  0.84080368  1
  Ta  Ta10  1  0.33333333  0.66666667  0.65919632  1
  Ta  Ta11  1  0.66666667  0.33333333  0.15919632  1
  Ta  Ta12  1  0.33333333  0.66666667  0.44536653  1
  Ta  Ta13  1  0.66666667  0.33333333  0.94536653  1
  Ta  Ta14  1  0.66666667  0.33333333  0.55463347  1
  Ta  Ta15  1  0.33333333  0.66666667  0.05463347  1
