# generated using pymatgen
data_YZrSb
_symmetry_space_group_name_H-M   'P 1'
_cell_length_a   4.28257628
_cell_length_b   4.28257628
_cell_length_c   8.86816704
_cell_angle_alpha   103.97259703
_cell_angle_beta   103.97259707
_cell_angle_gamma   90.00000007
_symmetry_Int_Tables_number   1
_chemical_formula_structural   YZrSb
_chemical_formula_sum   'Y2 Zr2 Sb2'
_cell_volume   152.86985608
_cell_formula_units_Z   2
loop_
 _symmetry_equiv_pos_site_id
 _symmetry_equiv_pos_as_xyz
  1  'x, y, z'
loop_
 _atom_site_type_symbol
 _atom_site_label
 _atom_site_symmetry_multiplicity
 _atom_site_fract_x
 _atom_site_fract_y
 _atom_site_fract_z
 _atom_site_occupancy
  Y  Y0  1  0.32338081  0.32338081  0.64676162  1
  Y  Y1  1  0.67661919  0.67661919  0.35323838  1
  Zr  Zr2  1  0.50000000  0.00000000  0.00000000  1
  Zr  Zr3  1  0.00000000  0.50000000  0.00000000  1
  Sb  Sb4  1  0.13310862  0.13310862  0.26621724  1
  Sb  Sb5  1  0.86689138  0.86689138  0.73378276  1
