# generated using pymatgen
data_Ni3S2
_symmetry_space_group_name_H-M   'P 1'
_cell_length_a   4.04589607
_cell_length_b   8.08952882
_cell_length_c   4.04662018
_cell_angle_alpha   89.32915576
_cell_angle_beta   89.35177336
_cell_angle_gamma   89.32490090
_symmetry_Int_Tables_number   1
_chemical_formula_structural   Ni3S2
_chemical_formula_sum   'Ni6 S4'
_cell_volume   132.41687858
_cell_formula_units_Z   2
loop_
 _symmetry_equiv_pos_site_id
 _symmetry_equiv_pos_as_xyz
  1  'x, y, z'
loop_
 _atom_site_type_symbol
 _atom_site_label
 _atom_site_symmetry_multiplicity
 _atom_site_fract_x
 _atom_site_fract_y
 _atom_site_fract_z
 _atom_site_occupancy
  Ni  Ni0  1  0.49986438  0.12195505  0.75604409  1
  Ni  Ni1  1  0.49980958  0.62198209  0.75593972  1
  Ni  Ni2  1  0.24397098  0.37807799  0.50019849  1
  Ni  Ni3  1  0.24399300  0.87809025  0.50020391  1
  Ni  Ni4  1  0.75597399  0.24998642  0.24392762  1
  Ni  Ni5  1  0.75599795  0.75000278  0.24392625  1
  S  S6  1  0.25461562  0.12733550  0.25438056  1
  S  S7  1  0.25466730  0.62735063  0.25438842  1
  S  S8  1  0.74556530  0.37261140  0.74550418  1
  S  S9  1  0.74554190  0.87260788  0.74548677  1
