# generated using pymatgen
data_V5Sb4
_symmetry_space_group_name_H-M   'P 1'
_cell_length_a   3.44433829
_cell_length_b   7.20310166
_cell_length_c   7.20310166
_cell_angle_alpha   86.72303389
_cell_angle_beta   76.16732968
_cell_angle_gamma   76.16732968
_symmetry_Int_Tables_number   1
_chemical_formula_structural   V5Sb4
_chemical_formula_sum   'V5 Sb4'
_cell_volume   168.49291960
_cell_formula_units_Z   1
loop_
 _symmetry_equiv_pos_site_id
 _symmetry_equiv_pos_as_xyz
  1  'x, y, z'
loop_
 _atom_site_type_symbol
 _atom_site_label
 _atom_site_symmetry_multiplicity
 _atom_site_fract_x
 _atom_site_fract_y
 _atom_site_fract_z
 _atom_site_occupancy
  V  V0  1  0.00000000  0.00000000  0.00000000  1
  V  V1  1  0.31807925  0.06774853  0.29609296  1
  V  V2  1  0.61417222  0.70390704  0.06774853  1
  V  V3  1  0.38582778  0.29609296  0.93225147  1
  V  V4  1  0.68192075  0.93225147  0.70390704  1
  Sb  Sb5  1  0.06302202  0.22701355  0.64694240  1
  Sb  Sb6  1  0.70996442  0.35305760  0.22701355  1
  Sb  Sb7  1  0.29003558  0.64694240  0.77298645  1
  Sb  Sb8  1  0.93697798  0.77298645  0.35305760  1
