# generated using pymatgen
data_Mg3Ir
_symmetry_space_group_name_H-M   'P 1'
_cell_length_a   4.57742395
_cell_length_b   4.57742434
_cell_length_c   8.30363564
_cell_angle_alpha   90.00000000
_cell_angle_beta   90.00000000
_cell_angle_gamma   119.99999727
_symmetry_Int_Tables_number   1
_chemical_formula_structural   Mg3Ir
_chemical_formula_sum   'Mg6 Ir2'
_cell_volume   150.67501382
_cell_formula_units_Z   2
loop_
 _symmetry_equiv_pos_site_id
 _symmetry_equiv_pos_as_xyz
  1  'x, y, z'
loop_
 _atom_site_type_symbol
 _atom_site_label
 _atom_site_symmetry_multiplicity
 _atom_site_fract_x
 _atom_site_fract_y
 _atom_site_fract_z
 _atom_site_occupancy
  Ir  Ir0  1  0.33333300  0.66666700  0.25000000  1
  Ir  Ir1  1  0.66666700  0.33333300  0.75000000  1
  Mg  Mg2  1  0.00000000  0.00000000  0.25000000  1
  Mg  Mg3  1  0.00000000  0.00000000  0.75000000  1
  Mg  Mg4  1  0.33333300  0.66666700  0.57796877  1
  Mg  Mg5  1  0.66666700  0.33333300  0.07796877  1
  Mg  Mg6  1  0.66666700  0.33333300  0.42203123  1
  Mg  Mg7  1  0.33333300  0.66666700  0.92203123  1
