# generated using pymatgen
data_Mg3Cd
_symmetry_space_group_name_H-M   'P 1'
_cell_length_a   5.13952462
_cell_length_b   6.31107351
_cell_length_c   6.31107351
_cell_angle_alpha   119.99192293
_cell_angle_beta   90.00000000
_cell_angle_gamma   90.00000000
_symmetry_Int_Tables_number   1
_chemical_formula_structural   Mg3Cd
_chemical_formula_sum   'Mg6 Cd2'
_cell_volume   177.29455640
_cell_formula_units_Z   2
loop_
 _symmetry_equiv_pos_site_id
 _symmetry_equiv_pos_as_xyz
  1  'x, y, z'
loop_
 _atom_site_type_symbol
 _atom_site_label
 _atom_site_symmetry_multiplicity
 _atom_site_fract_x
 _atom_site_fract_y
 _atom_site_fract_z
 _atom_site_occupancy
  Mg  Mg0  1  0.75000000  0.16757159  0.33512386  1
  Mg  Mg1  1  0.75000000  0.16755508  0.83244492  1
  Mg  Mg2  1  0.75000000  0.66487614  0.83242841  1
  Mg  Mg3  1  0.25000000  0.83242841  0.66487614  1
  Mg  Mg4  1  0.25000000  0.83244492  0.16755508  1
  Mg  Mg5  1  0.25000000  0.33512386  0.16757159  1
  Cd  Cd6  1  0.75000000  0.66668444  0.33331556  1
  Cd  Cd7  1  0.25000000  0.33331556  0.66668444  1
