# generated using pymatgen
data_LiMgN
_symmetry_space_group_name_H-M   'P 1'
_cell_length_a   3.51740491
_cell_length_b   5.03510159
_cell_length_c   7.20303366
_cell_angle_alpha   90.00000000
_cell_angle_beta   90.00000000
_cell_angle_gamma   90.00000000
_symmetry_Int_Tables_number   1
_chemical_formula_structural   LiMgN
_chemical_formula_sum   'Li4 Mg4 N4'
_cell_volume   127.56926320
_cell_formula_units_Z   4
loop_
 _symmetry_equiv_pos_site_id
 _symmetry_equiv_pos_as_xyz
  1  'x, y, z'
loop_
 _atom_site_type_symbol
 _atom_site_label
 _atom_site_symmetry_multiplicity
 _atom_site_fract_x
 _atom_site_fract_y
 _atom_site_fract_z
 _atom_site_occupancy
  Li  Li0  1  0.25000000  0.52815008  0.09606927  1
  Li  Li1  1  0.75000000  0.47184992  0.90393073  1
  Li  Li2  1  0.75000000  0.02815008  0.40393073  1
  Li  Li3  1  0.25000000  0.97184992  0.59606927  1
  N  N4  1  0.75000000  0.76954038  0.12016958  1
  N  N5  1  0.75000000  0.73045962  0.62016958  1
  N  N6  1  0.25000000  0.23045962  0.87983042  1
  N  N7  1  0.25000000  0.26954038  0.37983042  1
  Mg  Mg8  1  0.25000000  0.47959737  0.64406839  1
  Mg  Mg9  1  0.75000000  0.97959737  0.85593161  1
  Mg  Mg10  1  0.25000000  0.02040263  0.14406839  1
  Mg  Mg11  1  0.75000000  0.52040263  0.35593161  1
