# generated using pymatgen
data_FeAs
_symmetry_space_group_name_H-M   'P 1'
_cell_length_a   3.31501434
_cell_length_b   5.39728066
_cell_length_c   5.99785936
_cell_angle_alpha   90.00000000
_cell_angle_beta   90.00000000
_cell_angle_gamma   90.00000000
_symmetry_Int_Tables_number   1
_chemical_formula_structural   FeAs
_chemical_formula_sum   'Fe4 As4'
_cell_volume   107.31407624
_cell_formula_units_Z   4
loop_
 _symmetry_equiv_pos_site_id
 _symmetry_equiv_pos_as_xyz
  1  'x, y, z'
loop_
 _atom_site_type_symbol
 _atom_site_label
 _atom_site_symmetry_multiplicity
 _atom_site_fract_x
 _atom_site_fract_y
 _atom_site_fract_z
 _atom_site_occupancy
  Fe  Fe0  1  0.75000000  0.99960644  0.79987333  1
  Fe  Fe1  1  0.25000000  0.00039356  0.20012667  1
  Fe  Fe2  1  0.75000000  0.49960644  0.70012667  1
  Fe  Fe3  1  0.25000000  0.50039356  0.29987333  1
  As  As4  1  0.75000000  0.80081997  0.42396792  1
  As  As5  1  0.25000000  0.19918003  0.57603208  1
  As  As6  1  0.75000000  0.30081997  0.07603208  1
  As  As7  1  0.25000000  0.69918003  0.92396792  1
