# generated using pymatgen
data_NbB2
_symmetry_space_group_name_H-M   'P 1'
_cell_length_a   3.33746317
_cell_length_b   3.12200351
_cell_length_c   3.11208323
_cell_angle_alpha   120.10550054
_cell_angle_beta   90.00000000
_cell_angle_gamma   90.00000000
_symmetry_Int_Tables_number   1
_chemical_formula_structural   NbB2
_chemical_formula_sum   'Nb1 B2'
_cell_volume   28.05233556
_cell_formula_units_Z   1
loop_
 _symmetry_equiv_pos_site_id
 _symmetry_equiv_pos_as_xyz
  1  'x, y, z'
loop_
 _atom_site_type_symbol
 _atom_site_label
 _atom_site_symmetry_multiplicity
 _atom_site_fract_x
 _atom_site_fract_y
 _atom_site_fract_z
 _atom_site_occupancy
  Nb  Nb0  1  0.00000000  0.99996508  0.00000000  1
  B  B1  1  0.50000000  0.33337650  0.66681809  1
  B  B2  1  0.50000000  0.66655842  0.33318191  1
