# generated using pymatgen
data_CaMgSn
_symmetry_space_group_name_H-M   'P 1'
_cell_length_a   4.72007011
_cell_length_b   7.88123335
_cell_length_c   8.81831455
_cell_angle_alpha   90.00000000
_cell_angle_beta   90.00000000
_cell_angle_gamma   90.00000000
_symmetry_Int_Tables_number   1
_chemical_formula_structural   CaMgSn
_chemical_formula_sum   'Ca4 Mg4 Sn4'
_cell_volume   328.04107168
_cell_formula_units_Z   4
loop_
 _symmetry_equiv_pos_site_id
 _symmetry_equiv_pos_as_xyz
  1  'x, y, z'
loop_
 _atom_site_type_symbol
 _atom_site_label
 _atom_site_symmetry_multiplicity
 _atom_site_fract_x
 _atom_site_fract_y
 _atom_site_fract_z
 _atom_site_occupancy
  Mg  Mg0  1  0.75000000  0.85564345  0.56326913  1
  Mg  Mg1  1  0.25000000  0.14435655  0.43673087  1
  Mg  Mg2  1  0.25000000  0.64435655  0.06326913  1
  Mg  Mg3  1  0.75000000  0.35564345  0.93673087  1
  Ca  Ca4  1  0.75000000  0.48080416  0.31590370  1
  Ca  Ca5  1  0.75000000  0.98080416  0.18409630  1
  Ca  Ca6  1  0.25000000  0.51919584  0.68409630  1
  Ca  Ca7  1  0.25000000  0.01919584  0.81590370  1
  Sn  Sn8  1  0.75000000  0.73503948  0.88447753  1
  Sn  Sn9  1  0.25000000  0.26496052  0.11552247  1
  Sn  Sn10  1  0.75000000  0.23503948  0.61552247  1
  Sn  Sn11  1  0.25000000  0.76496052  0.38447753  1
