# generated using pymatgen
data_Al2SiO5
_symmetry_space_group_name_H-M   'P 1'
_cell_length_a   5.61389818
_cell_length_b   7.87578546
_cell_length_c   7.97941983
_cell_angle_alpha   90.00000000
_cell_angle_beta   90.00000000
_cell_angle_gamma   90.00000000
_symmetry_Int_Tables_number   1
_chemical_formula_structural   Al2SiO5
_chemical_formula_sum   'Al8 Si4 O20'
_cell_volume   352.80093257
_cell_formula_units_Z   4
loop_
 _symmetry_equiv_pos_site_id
 _symmetry_equiv_pos_as_xyz
  1  'x, y, z'
loop_
 _atom_site_type_symbol
 _atom_site_label
 _atom_site_symmetry_multiplicity
 _atom_site_fract_x
 _atom_site_fract_y
 _atom_site_fract_z
 _atom_site_occupancy
  O  O0  1  0.73971604  0.73075408  0.36577063  1
  O  O1  1  0.73971604  0.26924592  0.63422937  1
  O  O2  1  0.76028396  0.23075408  0.13422937  1
  O  O3  1  0.76028396  0.76924592  0.86577063  1
  O  O4  1  0.26028396  0.26924592  0.63422937  1
  O  O5  1  0.26028396  0.73075408  0.36577063  1
  O  O6  1  0.23971604  0.76924592  0.86577063  1
  O  O7  1  0.23971604  0.23075408  0.13422937  1
  O  O8  1  0.50000000  0.39746805  0.90066172  1
  O  O9  1  0.50000000  0.60253195  0.09933828  1
  O  O10  1  0.00000000  0.89746805  0.59933828  1
  O  O11  1  0.00000000  0.10253195  0.40066172  1
  O  O12  1  0.50000000  0.42403068  0.36286135  1
  O  O13  1  0.50000000  0.57596932  0.63713865  1
  O  O14  1  0.00000000  0.92403068  0.13713865  1
  O  O15  1  0.00000000  0.07596932  0.86286135  1
  O  O16  1  0.00000000  0.42412244  0.36359164  1
  O  O17  1  0.00000000  0.57587756  0.63640836  1
  O  O18  1  0.50000000  0.92412244  0.13640836  1
  O  O19  1  0.50000000  0.07587756  0.86359164  1
  Al  Al20  1  0.24176447  0.00000000  0.00000000  1
  Al  Al21  1  0.25823553  0.50000000  0.50000000  1
  Al  Al22  1  0.75823553  0.00000000  0.00000000  1
  Al  Al23  1  0.74176447  0.50000000  0.50000000  1
  Al  Al24  1  0.00000000  0.12942946  0.63918076  1
  Al  Al25  1  0.00000000  0.87057054  0.36081924  1
  Al  Al26  1  0.50000000  0.62942946  0.86081924  1
  Al  Al27  1  0.50000000  0.37057054  0.13918076  1
  Si  Si28  1  0.00000000  0.24575185  0.25224095  1
  Si  Si29  1  0.00000000  0.75424815  0.74775905  1
  Si  Si30  1  0.50000000  0.74575185  0.24775905  1
  Si  Si31  1  0.50000000  0.25424815  0.75224095  1
