# generated using pymatgen
data_Hf2SnC
_symmetry_space_group_name_H-M   'P 1'
_cell_length_a   3.33199769
_cell_length_b   3.33199770
_cell_length_c   14.58041389
_cell_angle_alpha   90.00000000
_cell_angle_beta   90.00000000
_cell_angle_gamma   120.00000003
_symmetry_Int_Tables_number   1
_chemical_formula_structural   Hf2SnC
_chemical_formula_sum   'Hf4 Sn2 C2'
_cell_volume   140.18768631
_cell_formula_units_Z   2
loop_
 _symmetry_equiv_pos_site_id
 _symmetry_equiv_pos_as_xyz
  1  'x, y, z'
loop_
 _atom_site_type_symbol
 _atom_site_label
 _atom_site_symmetry_multiplicity
 _atom_site_fract_x
 _atom_site_fract_y
 _atom_site_fract_z
 _atom_site_occupancy
  C  C0  1  0.00000000  0.00000000  0.00000000  1
  C  C1  1  0.00000000  0.00000000  0.50000000  1
  Sn  Sn2  1  0.33333333  0.66666667  0.75000000  1
  Sn  Sn3  1  0.66666667  0.33333333  0.25000000  1
  Hf  Hf4  1  0.33333333  0.66666667  0.08459333  1
  Hf  Hf5  1  0.66666667  0.33333333  0.58459333  1
  Hf  Hf6  1  0.66666667  0.33333333  0.91540667  1
  Hf  Hf7  1  0.33333333  0.66666667  0.41540667  1
