# generated using pymatgen
data_Ca(CuGe)2
_symmetry_space_group_name_H-M   'P 1'
_cell_length_a   4.14799985
_cell_length_b   4.14799985
_cell_length_c   5.91865848
_cell_angle_alpha   110.51283698
_cell_angle_beta   110.51283700
_cell_angle_gamma   89.99999999
_symmetry_Int_Tables_number   1
_chemical_formula_structural   Ca(CuGe)2
_chemical_formula_sum   'Ca1 Cu2 Ge2'
_cell_volume   88.45167349
_cell_formula_units_Z   1
loop_
 _symmetry_equiv_pos_site_id
 _symmetry_equiv_pos_as_xyz
  1  'x, y, z'
loop_
 _atom_site_type_symbol
 _atom_site_label
 _atom_site_symmetry_multiplicity
 _atom_site_fract_x
 _atom_site_fract_y
 _atom_site_fract_z
 _atom_site_occupancy
  Ca  Ca0  1  0.00000000  0.00000000  0.00000000  1
  Cu  Cu1  1  0.75000000  0.25000000  0.50000000  1
  Cu  Cu2  1  0.25000000  0.75000000  0.50000000  1
  Ge  Ge3  1  0.37835327  0.37835327  0.75670655  1
  Ge  Ge4  1  0.62164673  0.62164673  0.24329345  1
