# generated using pymatgen
data_SbPdSe
_symmetry_space_group_name_H-M   'P 1'
_cell_length_a   6.42521397
_cell_length_b   6.42521397
_cell_length_c   6.42521397
_cell_angle_alpha   90.00000000
_cell_angle_beta   90.00000000
_cell_angle_gamma   90.00000000
_symmetry_Int_Tables_number   1
_chemical_formula_structural   SbPdSe
_chemical_formula_sum   'Sb4 Pd4 Se4'
_cell_volume   265.25451495
_cell_formula_units_Z   4
loop_
 _symmetry_equiv_pos_site_id
 _symmetry_equiv_pos_as_xyz
  1  'x, y, z'
loop_
 _atom_site_type_symbol
 _atom_site_label
 _atom_site_symmetry_multiplicity
 _atom_site_fract_x
 _atom_site_fract_y
 _atom_site_fract_z
 _atom_site_occupancy
  Se  Se0  1  0.36771303  0.36771303  0.36771303  1
  Se  Se1  1  0.13228697  0.63228697  0.86771303  1
  Se  Se2  1  0.86771303  0.13228697  0.63228697  1
  Se  Se3  1  0.63228697  0.86771303  0.13228697  1
  Pd  Pd4  1  0.74666617  0.24666617  0.25333383  1
  Pd  Pd5  1  0.24666617  0.25333383  0.74666617  1
  Pd  Pd6  1  0.25333383  0.74666617  0.24666617  1
  Pd  Pd7  1  0.75333383  0.75333383  0.75333383  1
  Sb  Sb8  1  0.87357534  0.62642466  0.37357534  1
  Sb  Sb9  1  0.37357534  0.87357534  0.62642466  1
  Sb  Sb10  1  0.12642466  0.12642466  0.12642466  1
  Sb  Sb11  1  0.62642466  0.37357534  0.87357534  1
