# generated using pymatgen
data_Si2Ni6B
_symmetry_space_group_name_H-M   'P 1'
_cell_length_a   6.10965374
_cell_length_b   6.10965374
_cell_length_c   2.85934136
_cell_angle_alpha   90.00000000
_cell_angle_beta   90.00000000
_cell_angle_gamma   119.99999999
_symmetry_Int_Tables_number   1
_chemical_formula_structural   Si2Ni6B
_chemical_formula_sum   'Si2 Ni6 B1'
_cell_volume   92.43359271
_cell_formula_units_Z   1
loop_
 _symmetry_equiv_pos_site_id
 _symmetry_equiv_pos_as_xyz
  1  'x, y, z'
loop_
 _atom_site_type_symbol
 _atom_site_label
 _atom_site_symmetry_multiplicity
 _atom_site_fract_x
 _atom_site_fract_y
 _atom_site_fract_z
 _atom_site_occupancy
  B  B0  1  0.00000000  0.00000000  0.50000000  1
  Si  Si1  1  0.33333333  0.66666667  0.00000000  1
  Si  Si2  1  0.66666667  0.33333333  0.00000000  1
  Ni  Ni3  1  0.75531331  0.75531331  0.00000000  1
  Ni  Ni4  1  0.00000000  0.24468669  0.00000000  1
  Ni  Ni5  1  0.38943575  0.38943575  0.50000000  1
  Ni  Ni6  1  0.00000000  0.61056425  0.50000000  1
  Ni  Ni7  1  0.24468669  0.00000000  0.00000000  1
  Ni  Ni8  1  0.61056425  0.00000000  0.50000000  1
