# generated using pymatgen
data_V(CrC)2
_symmetry_space_group_name_H-M   'P 1'
_cell_length_a   2.84608509
_cell_length_b   4.80571897
_cell_length_c   7.10046434
_cell_angle_alpha   90.00000000
_cell_angle_beta   90.00000000
_cell_angle_gamma   107.22437310
_symmetry_Int_Tables_number   1
_chemical_formula_structural   V(CrC)2
_chemical_formula_sum   'V2 Cr4 C4'
_cell_volume   92.76106166
_cell_formula_units_Z   2
loop_
 _symmetry_equiv_pos_site_id
 _symmetry_equiv_pos_as_xyz
  1  'x, y, z'
loop_
 _atom_site_type_symbol
 _atom_site_label
 _atom_site_symmetry_multiplicity
 _atom_site_fract_x
 _atom_site_fract_y
 _atom_site_fract_z
 _atom_site_occupancy
  C  C0  1  0.25049218  0.50098436  0.25000000  1
  C  C1  1  0.74950782  0.49901564  0.75000000  1
  C  C2  1  0.50000000  0.00000000  0.50000000  1
  C  C3  1  0.50000000  0.00000000  0.00000000  1
  V  V4  1  0.40413223  0.80826446  0.75000000  1
  V  V5  1  0.59586777  0.19173554  0.25000000  1
  Cr  Cr6  1  0.14074741  0.28149482  0.57172657  1
  Cr  Cr7  1  0.85925259  0.71850518  0.42827343  1
  Cr  Cr8  1  0.85925259  0.71850518  0.07172657  1
  Cr  Cr9  1  0.14074741  0.28149482  0.92827343  1
