# generated using pymatgen
data_BaZnO2
_symmetry_space_group_name_H-M   'P 1'
_cell_length_a   5.97230086
_cell_length_b   5.97230086
_cell_length_c   6.82699600
_cell_angle_alpha   90.00000000
_cell_angle_beta   90.00000000
_cell_angle_gamma   120.00000002
_symmetry_Int_Tables_number   1
_chemical_formula_structural   BaZnO2
_chemical_formula_sum   'Ba3 Zn3 O6'
_cell_volume   210.88400210
_cell_formula_units_Z   3
loop_
 _symmetry_equiv_pos_site_id
 _symmetry_equiv_pos_as_xyz
  1  'x, y, z'
loop_
 _atom_site_type_symbol
 _atom_site_label
 _atom_site_symmetry_multiplicity
 _atom_site_fract_x
 _atom_site_fract_y
 _atom_site_fract_z
 _atom_site_occupancy
  O  O0  1  0.12391566  0.42119703  0.87617289  1
  O  O1  1  0.57880297  0.70271863  0.20950623  1
  O  O2  1  0.29728137  0.87608434  0.54283956  1
  O  O3  1  0.70271863  0.57880297  0.79049377  1
  O  O4  1  0.42119703  0.12391566  0.12382711  1
  O  O5  1  0.87608434  0.29728137  0.45716044  1
  Zn  Zn6  1  0.41594472  0.41594472  0.00000000  1
  Zn  Zn7  1  0.00000000  0.58405528  0.66666667  1
  Zn  Zn8  1  0.58405528  0.00000000  0.33333333  1
  Ba  Ba9  1  0.65395856  0.00000000  0.83333333  1
  Ba  Ba10  1  0.00000000  0.65395856  0.16666667  1
  Ba  Ba11  1  0.34604144  0.34604144  0.50000000  1
