# generated using pymatgen
data_Ga2CoS4
_symmetry_space_group_name_H-M   'P 1'
_cell_length_a   5.29198729
_cell_length_b   5.29198728
_cell_length_c   6.45268046
_cell_angle_alpha   114.20867693
_cell_angle_beta   114.20867699
_cell_angle_gamma   89.99999995
_symmetry_Int_Tables_number   1
_chemical_formula_structural   Ga2CoS4
_chemical_formula_sum   'Ga2 Co1 S4'
_cell_volume   147.21889370
_cell_formula_units_Z   1
loop_
 _symmetry_equiv_pos_site_id
 _symmetry_equiv_pos_as_xyz
  1  'x, y, z'
loop_
 _atom_site_type_symbol
 _atom_site_label
 _atom_site_symmetry_multiplicity
 _atom_site_fract_x
 _atom_site_fract_y
 _atom_site_fract_z
 _atom_site_occupancy
  S  S0  1  0.87486887  0.88633966  0.25353144  1
  S  S1  1  0.63280822  0.12513113  0.74646856  1
  S  S2  1  0.11366034  0.62133743  0.74646856  1
  S  S3  1  0.37866257  0.36719178  0.25353144  1
  Co  Co4  1  0.00000000  0.00000000  0.00000000  1
  Ga  Ga5  1  0.50000000  0.50000000  0.00000000  1
  Ga  Ga6  1  0.25000000  0.75000000  0.50000000  1
