# generated using pymatgen
data_SrTiO3
_symmetry_space_group_name_H-M   'P 1'
_cell_length_a   5.56772841
_cell_length_b   5.56772840
_cell_length_c   5.57946069
_cell_angle_alpha   119.93046553
_cell_angle_beta   119.93046550
_cell_angle_gamma   89.99999999
_symmetry_Int_Tables_number   1
_chemical_formula_structural   SrTiO3
_chemical_formula_sum   'Sr2 Ti2 O6'
_cell_volume   122.55856186
_cell_formula_units_Z   2
loop_
 _symmetry_equiv_pos_site_id
 _symmetry_equiv_pos_as_xyz
  1  'x, y, z'
loop_
 _atom_site_type_symbol
 _atom_site_label
 _atom_site_symmetry_multiplicity
 _atom_site_fract_x
 _atom_site_fract_y
 _atom_site_fract_z
 _atom_site_occupancy
  O  O0  1  0.77093330  0.27093330  0.00000000  1
  O  O1  1  0.72906670  0.77093330  0.00000000  1
  O  O2  1  0.27093330  0.22906670  0.00000000  1
  O  O3  1  0.22906670  0.72906670  0.00000000  1
  O  O4  1  0.25000000  0.25000000  0.50000000  1
  O  O5  1  0.75000000  0.75000000  0.50000000  1
  Ti  Ti6  1  0.50000000  0.50000000  0.00000000  1
  Ti  Ti7  1  0.00000000  0.00000000  0.00000000  1
  Sr  Sr8  1  0.75000000  0.25000000  0.50000000  1
  Sr  Sr9  1  0.25000000  0.75000000  0.50000000  1
