# generated using pymatgen
data_AlF3
_symmetry_space_group_name_H-M   'P 1'
_cell_length_a   5.11222586
_cell_length_b   5.11222586
_cell_length_c   5.11222587
_cell_angle_alpha   58.99566965
_cell_angle_beta   58.99566957
_cell_angle_gamma   58.99566957
_symmetry_Int_Tables_number   1
_chemical_formula_structural   AlF3
_chemical_formula_sum   'Al2 F6'
_cell_volume   92.31021174
_cell_formula_units_Z   2
loop_
 _symmetry_equiv_pos_site_id
 _symmetry_equiv_pos_as_xyz
  1  'x, y, z'
loop_
 _atom_site_type_symbol
 _atom_site_label
 _atom_site_symmetry_multiplicity
 _atom_site_fract_x
 _atom_site_fract_y
 _atom_site_fract_z
 _atom_site_occupancy
  F  F0  1  0.68577789  0.24999919  0.81422128  1
  F  F1  1  0.24999919  0.81422128  0.68577789  1
  F  F2  1  0.18577872  0.31422211  0.75000081  1
  F  F3  1  0.75000081  0.18577872  0.31422211  1
  F  F4  1  0.31422211  0.75000081  0.18577872  1
  F  F5  1  0.81422128  0.68577789  0.24999919  1
  Al  Al6  1  0.50000000  0.50000000  0.50000000  1
  Al  Al7  1  0.00000000  0.00000000  0.00000000  1
