# generated using pymatgen
data_CdSiP2
_symmetry_space_group_name_H-M   'P 1'
_cell_length_a   5.73172615
_cell_length_b   5.73172615
_cell_length_c   6.66308747
_cell_angle_alpha   115.47456529
_cell_angle_beta   115.47456527
_cell_angle_gamma   89.99999999
_symmetry_Int_Tables_number   1
_chemical_formula_structural   CdSiP2
_chemical_formula_sum   'Cd2 Si2 P4'
_cell_volume   173.74813194
_cell_formula_units_Z   2
loop_
 _symmetry_equiv_pos_site_id
 _symmetry_equiv_pos_as_xyz
  1  'x, y, z'
loop_
 _atom_site_type_symbol
 _atom_site_label
 _atom_site_symmetry_multiplicity
 _atom_site_fract_x
 _atom_site_fract_y
 _atom_site_fract_z
 _atom_site_occupancy
  Si  Si0  1  0.50000000  0.50000000  0.00000000  1
  Si  Si1  1  0.75000000  0.25000000  0.50000000  1
  P  P2  1  0.82840254  0.87500000  0.25000000  1
  P  P3  1  0.62500000  0.17159746  0.75000000  1
  P  P4  1  0.42159746  0.37500000  0.25000000  1
  P  P5  1  0.12500000  0.57840254  0.75000000  1
  Cd  Cd6  1  0.25000000  0.75000000  0.50000000  1
  Cd  Cd7  1  0.00000000  0.00000000  0.00000000  1
