# generated using pymatgen
data_Ba(CuS)2
_symmetry_space_group_name_H-M   'P 1'
_cell_length_a   3.91942081
_cell_length_b   3.91942081
_cell_length_c   6.89707185
_cell_angle_alpha   106.50724462
_cell_angle_beta   106.50724465
_cell_angle_gamma   89.99999999
_symmetry_Int_Tables_number   1
_chemical_formula_structural   Ba(CuS)2
_chemical_formula_sum   'Ba1 Cu2 S2'
_cell_volume   97.02163054
_cell_formula_units_Z   1
loop_
 _symmetry_equiv_pos_site_id
 _symmetry_equiv_pos_as_xyz
  1  'x, y, z'
loop_
 _atom_site_type_symbol
 _atom_site_label
 _atom_site_symmetry_multiplicity
 _atom_site_fract_x
 _atom_site_fract_y
 _atom_site_fract_z
 _atom_site_occupancy
  S  S0  1  0.63956186  0.63956186  0.27912372  1
  S  S1  1  0.36043814  0.36043814  0.72087628  1
  Cu  Cu2  1  0.25000000  0.75000000  0.50000000  1
  Cu  Cu3  1  0.75000000  0.25000000  0.50000000  1
  Ba  Ba4  1  0.00000000  0.00000000  0.00000000  1
