# generated using pymatgen
data_Li2B4O7
_symmetry_space_group_name_H-M   'P 1'
_cell_length_a   8.66788994
_cell_length_b   8.66788994
_cell_length_c   8.66788994
_cell_angle_alpha   102.87882322
_cell_angle_beta   112.86462257
_cell_angle_gamma   112.86462258
_symmetry_Int_Tables_number   1
_chemical_formula_structural   Li2B4O7
_chemical_formula_sum   'Li8 B16 O28'
_cell_volume   496.42517385
_cell_formula_units_Z   4
loop_
 _symmetry_equiv_pos_site_id
 _symmetry_equiv_pos_as_xyz
  1  'x, y, z'
loop_
 _atom_site_type_symbol
 _atom_site_label
 _atom_site_symmetry_multiplicity
 _atom_site_fract_x
 _atom_site_fract_y
 _atom_site_fract_z
 _atom_site_occupancy
  Li  Li0  1  0.65458308  0.65714673  0.67288078  1
  Li  Li1  1  0.51573404  0.42288078  0.26829769  1
  Li  Li2  1  0.48426596  0.75256365  0.90714673  1
  Li  Li3  1  0.34541692  0.01829769  0.00256365  1
  Li  Li4  1  0.01573404  0.51829769  0.17288078  1
  Li  Li5  1  0.98426596  0.15714673  0.50256365  1
  Li  Li6  1  0.15458308  0.92288078  0.40714673  1
  Li  Li7  1  0.84541692  0.25256365  0.76829769  1
  B  B8  1  0.41011432  0.78347676  0.53130988  1
  B  B9  1  0.24783312  0.28130988  0.37119557  1
  B  B10  1  0.75216688  0.12336245  0.03347676  1
  B  B11  1  0.58988568  0.12119557  0.37336245  1
  B  B12  1  0.74783312  0.62119557  0.03130988  1
  B  B13  1  0.25216688  0.28347676  0.87336245  1
  B  B14  1  0.91011432  0.78130988  0.53347676  1
  B  B15  1  0.08988568  0.62336245  0.87119557  1
  B  B16  1  0.16078215  0.69827844  0.63231880  1
  B  B17  1  0.43404036  0.38231880  0.72153664  1
  B  B18  1  0.56595964  0.28749629  0.94827844  1
  B  B19  1  0.83921785  0.47153664  0.53749629  1
  B  B20  1  0.93404036  0.97153664  0.13231880  1
  B  B21  1  0.06595964  0.19827844  0.03749629  1
  B  B22  1  0.66078215  0.88231880  0.44827844  1
  B  B23  1  0.33921785  0.78749629  0.22153664  1
  O  O24  1  0.34864596  0.74131070  0.64757779  1
  O  O25  1  0.40626708  0.39757779  0.54893183  1
  O  O26  1  0.59373292  0.14266475  0.99131070  1
  O  O27  1  0.65135404  0.29893183  0.39266475  1
  O  O28  1  0.90626708  0.79893183  0.14757779  1
  O  O29  1  0.09373292  0.24131070  0.89266475  1
  O  O30  1  0.84864596  0.89757779  0.49131070  1
  O  O31  1  0.15135404  0.64266475  0.04893183  1
  O  O32  1  0.59980119  0.83133403  0.57972972  1
  O  O33  1  0.24839569  0.32972972  0.22992853  1
  O  O34  1  0.75160431  0.98153284  0.08133403  1
  O  O35  1  0.40019881  0.97992853  0.23153284  1
  O  O36  1  0.74839569  0.47992853  0.07972972  1
  O  O37  1  0.25160431  0.33133403  0.73153284  1
  O  O38  1  0.09980119  0.82972972  0.58133403  1
  O  O39  1  0.90019881  0.48153284  0.72992853  1
  O  O40  1  0.28304412  0.77728374  0.36832563  1
  O  O41  1  0.09104189  0.11832563  0.33528151  1
  O  O42  1  0.90895811  0.24423962  0.02728374  1
  O  O43  1  0.71695588  0.08528151  0.49423962  1
  O  O44  1  0.59104189  0.58528151  0.86832563  1
  O  O45  1  0.40895811  0.27728374  0.99423962  1
  O  O46  1  0.78304412  0.61832563  0.52728374  1
  O  O47  1  0.21695588  0.74423962  0.83528151  1
  O  O48  1  0.00000000  0.50805782  0.50805782  1
  O  O49  1  0.50000000  0.25805782  0.75805782  1
  O  O50  1  0.00000000  0.00805782  0.00805782  1
  O  O51  1  0.50000000  0.75805782  0.25805782  1
