# generated using pymatgen
data_MnP4
_symmetry_space_group_name_H-M   'P 1'
_cell_length_a   5.10977071
_cell_length_b   5.83587347
_cell_length_c   5.86821542
_cell_angle_alpha   107.34320444
_cell_angle_beta   115.84281548
_cell_angle_gamma   93.75419288
_symmetry_Int_Tables_number   1
_chemical_formula_structural   MnP4
_chemical_formula_sum   'Mn2 P8'
_cell_volume   146.38879424
_cell_formula_units_Z   2
loop_
 _symmetry_equiv_pos_site_id
 _symmetry_equiv_pos_as_xyz
  1  'x, y, z'
loop_
 _atom_site_type_symbol
 _atom_site_label
 _atom_site_symmetry_multiplicity
 _atom_site_fract_x
 _atom_site_fract_y
 _atom_site_fract_z
 _atom_site_occupancy
  P  P0  1  0.39791585  0.80314371  0.95497693  1
  P  P1  1  0.60208415  0.19685629  0.04502307  1
  P  P2  1  0.93913907  0.30483844  0.48974896  1
  P  P3  1  0.06086093  0.69516156  0.51025104  1
  P  P4  1  0.24607865  0.33125077  0.11976085  1
  P  P5  1  0.75392135  0.66874923  0.88023915  1
  P  P6  1  0.30336248  0.15103781  0.42225462  1
  P  P7  1  0.69663752  0.84896219  0.57774538  1
  Mn  Mn8  1  0.78630416  0.27596125  0.78467496  1
  Mn  Mn9  1  0.21369584  0.72403875  0.21532504  1
