# generated using pymatgen
data_MnFeAs
_symmetry_space_group_name_H-M   'P 1'
_cell_length_a   6.26306786
_cell_length_b   6.26306786
_cell_length_c   3.45002379
_cell_angle_alpha   90.00000000
_cell_angle_beta   90.00000000
_cell_angle_gamma   120.00000001
_symmetry_Int_Tables_number   1
_chemical_formula_structural   MnFeAs
_chemical_formula_sum   'Mn3 Fe3 As3'
_cell_volume   117.19982302
_cell_formula_units_Z   3
loop_
 _symmetry_equiv_pos_site_id
 _symmetry_equiv_pos_as_xyz
  1  'x, y, z'
loop_
 _atom_site_type_symbol
 _atom_site_label
 _atom_site_symmetry_multiplicity
 _atom_site_fract_x
 _atom_site_fract_y
 _atom_site_fract_z
 _atom_site_occupancy
  Mn  Mn0  1  0.59450577  0.00000000  0.50000000  1
  Mn  Mn1  1  0.40549423  0.40549423  0.50000000  1
  Mn  Mn2  1  0.00000000  0.59450577  0.50000000  1
  Fe  Fe3  1  0.25496168  0.00000000  0.00000000  1
  Fe  Fe4  1  0.74503832  0.74503832  0.00000000  1
  Fe  Fe5  1  0.00000000  0.25496168  0.00000000  1
  As  As6  1  0.33333333  0.66666667  0.00000000  1
  As  As7  1  0.66666667  0.33333333  0.00000000  1
  As  As8  1  0.00000000  0.00000000  0.50000000  1
