# generated using pymatgen
data_MgSiO3
_symmetry_space_group_name_H-M   'P 1'
_cell_length_a   2.71518337
_cell_length_b   4.80008242
_cell_length_c   6.72652268
_cell_angle_alpha   90.00000000
_cell_angle_beta   90.00000000
_cell_angle_gamma   106.42898629
_symmetry_Int_Tables_number   1
_chemical_formula_structural   MgSiO3
_chemical_formula_sum   'Mg2 Si2 O6'
_cell_volume   84.08809547
_cell_formula_units_Z   2
loop_
 _symmetry_equiv_pos_site_id
 _symmetry_equiv_pos_as_xyz
  1  'x, y, z'
loop_
 _atom_site_type_symbol
 _atom_site_label
 _atom_site_symmetry_multiplicity
 _atom_site_fract_x
 _atom_site_fract_y
 _atom_site_fract_z
 _atom_site_occupancy
  O  O0  1  0.62607238  0.25214477  0.94471736  1
  O  O1  1  0.37392762  0.74785523  0.05528264  1
  O  O2  1  0.37392762  0.74785523  0.44471736  1
  O  O3  1  0.62607238  0.25214477  0.55528264  1
  O  O4  1  0.92719537  0.85439075  0.75000000  1
  O  O5  1  0.07280463  0.14560925  0.25000000  1
  Mg  Mg6  1  0.26066219  0.52132439  0.75000000  1
  Mg  Mg7  1  0.73933781  0.47867561  0.25000000  1
  Si  Si8  1  0.00000000  0.00000000  0.00000000  1
  Si  Si9  1  0.00000000  0.00000000  0.50000000  1
