# generated using pymatgen
data_CoAsS
_symmetry_space_group_name_H-M   'P 1'
_cell_length_a   5.58590337
_cell_length_b   5.59044160
_cell_length_c   5.57938872
_cell_angle_alpha   90.00000000
_cell_angle_beta   90.00000000
_cell_angle_gamma   90.00000000
_symmetry_Int_Tables_number   1
_chemical_formula_structural   CoAsS
_chemical_formula_sum   'Co4 As4 S4'
_cell_volume   174.23129063
_cell_formula_units_Z   4
loop_
 _symmetry_equiv_pos_site_id
 _symmetry_equiv_pos_as_xyz
  1  'x, y, z'
loop_
 _atom_site_type_symbol
 _atom_site_label
 _atom_site_symmetry_multiplicity
 _atom_site_fract_x
 _atom_site_fract_y
 _atom_site_fract_z
 _atom_site_occupancy
  S  S0  1  0.11871112  0.12932036  0.62252300  1
  S  S1  1  0.38128888  0.12932036  0.12252300  1
  S  S2  1  0.88128888  0.87067964  0.12252300  1
  S  S3  1  0.61871112  0.87067964  0.62252300  1
  Co  Co4  1  0.49337150  0.23908491  0.50138815  1
  Co  Co5  1  0.99337150  0.76091509  0.50138815  1
  Co  Co6  1  0.00662850  0.23908491  0.00138815  1
  Co  Co7  1  0.50662850  0.76091509  0.00138815  1
  As  As8  1  0.87889780  0.37058025  0.38308885  1
  As  As9  1  0.62110220  0.37058025  0.88308885  1
  As  As10  1  0.37889780  0.62941975  0.38308885  1
  As  As11  1  0.12110220  0.62941975  0.88308885  1
