# generated using pymatgen
data_TiN
_symmetry_space_group_name_H-M   'P 1'
_cell_length_a   3.00697219
_cell_length_b   3.00608121
_cell_length_c   4.25686196
_cell_angle_alpha   90.05628974
_cell_angle_beta   90.05292869
_cell_angle_gamma   89.96562909
_symmetry_Int_Tables_number   1
_chemical_formula_structural   TiN
_chemical_formula_sum   'Ti2 N2'
_cell_volume   38.47859577
_cell_formula_units_Z   2
loop_
 _symmetry_equiv_pos_site_id
 _symmetry_equiv_pos_as_xyz
  1  'x, y, z'
loop_
 _atom_site_type_symbol
 _atom_site_label
 _atom_site_symmetry_multiplicity
 _atom_site_fract_x
 _atom_site_fract_y
 _atom_site_fract_z
 _atom_site_occupancy
  Ti  Ti0  1  0.37841440  0.12766282  0.99891542  1
  Ti  Ti1  1  0.87826282  0.62818740  0.49840644  1
  N  N2  1  0.37841503  0.12820100  0.49904862  1
  N  N3  1  0.87834776  0.62766878  0.99832951  1
