# generated using pymatgen
data_Y2MgCu2
_symmetry_space_group_name_H-M   'P 1'
_cell_length_a   3.67632884
_cell_length_b   7.68482779
_cell_length_c   7.68482779
_cell_angle_alpha   90.00000000
_cell_angle_beta   90.00000000
_cell_angle_gamma   90.00000000
_symmetry_Int_Tables_number   1
_chemical_formula_structural   Y2MgCu2
_chemical_formula_sum   'Y4 Mg2 Cu4'
_cell_volume   217.11140149
_cell_formula_units_Z   2
loop_
 _symmetry_equiv_pos_site_id
 _symmetry_equiv_pos_as_xyz
  1  'x, y, z'
loop_
 _atom_site_type_symbol
 _atom_site_label
 _atom_site_symmetry_multiplicity
 _atom_site_fract_x
 _atom_site_fract_y
 _atom_site_fract_z
 _atom_site_occupancy
  Mg  Mg0  1  0.00000000  0.50000000  0.50000000  1
  Mg  Mg1  1  0.00000000  0.00000000  0.00000000  1
  Cu  Cu2  1  0.00000000  0.87838822  0.37838822  1
  Cu  Cu3  1  0.00000000  0.62161178  0.87838822  1
  Cu  Cu4  1  0.00000000  0.12161178  0.62161178  1
  Cu  Cu5  1  0.00000000  0.37838822  0.12161178  1
  Y  Y6  1  0.50000000  0.32879635  0.82879635  1
  Y  Y7  1  0.50000000  0.17120365  0.32879635  1
  Y  Y8  1  0.50000000  0.82879635  0.67120365  1
  Y  Y9  1  0.50000000  0.67120365  0.17120365  1
