# generated using pymatgen
data_CaTiO3
_symmetry_space_group_name_H-M   'P 1'
_cell_length_a   7.71855124
_cell_length_b   7.69401223
_cell_length_c   7.71850057
_cell_angle_alpha   90.00000000
_cell_angle_beta   88.95367497
_cell_angle_gamma   90.00000000
_symmetry_Int_Tables_number   1
_chemical_formula_structural   CaTiO3
_chemical_formula_sum   'Ca8 Ti8 O24'
_cell_volume   458.29928872
_cell_formula_units_Z   8
loop_
 _symmetry_equiv_pos_site_id
 _symmetry_equiv_pos_as_xyz
  1  'x, y, z'
loop_
 _atom_site_type_symbol
 _atom_site_label
 _atom_site_symmetry_multiplicity
 _atom_site_fract_x
 _atom_site_fract_y
 _atom_site_fract_z
 _atom_site_occupancy
  O  O0  1  0.45102520  0.75000000  0.52918485  1
  O  O1  1  0.54897480  0.25000000  0.47081515  1
  O  O2  1  0.52908429  0.75000000  0.95102167  1
  O  O3  1  0.47091571  0.25000000  0.04897833  1
  O  O4  1  0.24971001  0.95900263  0.04033688  1
  O  O5  1  0.75028999  0.45900263  0.95966312  1
  O  O6  1  0.75028999  0.04099737  0.95966312  1
  O  O7  1  0.24971001  0.54099737  0.04033688  1
  O  O8  1  0.54031518  0.95891552  0.24970926  1
  O  O9  1  0.45968482  0.45891552  0.75029074  1
  O  O10  1  0.45968482  0.04108448  0.75029074  1
  O  O11  1  0.54031518  0.54108448  0.24970926  1
  O  O12  1  0.25029491  0.04106036  0.45967827  1
  O  O13  1  0.74970509  0.54106036  0.54032173  1
  O  O14  1  0.74970509  0.95893964  0.54032173  1
  O  O15  1  0.25029491  0.45893964  0.45967827  1
  O  O16  1  0.04891758  0.25000000  0.97090814  1
  O  O17  1  0.95108242  0.75000000  0.02909186  1
  O  O18  1  0.97080360  0.25000000  0.54891986  1
  O  O19  1  0.02919640  0.75000000  0.45108014  1
  O  O20  1  0.95965586  0.45901677  0.25029479  1
  O  O21  1  0.04034414  0.95901677  0.74970521  1
  O  O22  1  0.04034414  0.54098323  0.74970521  1
  O  O23  1  0.95965586  0.04098323  0.25029479  1
  Ca  Ca24  1  0.76694203  0.75000000  0.27598599  1
  Ca  Ca25  1  0.23305797  0.25000000  0.72401401  1
  Ca  Ca26  1  0.77592675  0.75000000  0.76689705  1
  Ca  Ca27  1  0.22407325  0.25000000  0.23310295  1
  Ca  Ca28  1  0.27604488  0.75000000  0.26688409  1
  Ca  Ca29  1  0.72395512  0.25000000  0.73311591  1
  Ca  Ca30  1  0.26683905  0.75000000  0.77598017  1
  Ca  Ca31  1  0.73316095  0.25000000  0.22401983  1
  Ti  Ti32  1  0.50000000  0.50000000  0.50000000  1
  Ti  Ti33  1  0.50000000  0.00000000  0.50000000  1
  Ti  Ti34  1  0.00000000  0.50000000  0.50000000  1
  Ti  Ti35  1  0.00000000  0.00000000  0.50000000  1
  Ti  Ti36  1  0.50000000  0.50000000  0.00000000  1
  Ti  Ti37  1  0.50000000  0.00000000  0.00000000  1
  Ti  Ti38  1  0.00000000  0.50000000  0.00000000  1
  Ti  Ti39  1  0.00000000  0.00000000  0.00000000  1
