# generated using pymatgen
data_Ca3AsN
_symmetry_space_group_name_H-M   'P 1'
_cell_length_a   6.74443896
_cell_length_b   6.74242167
_cell_length_c   9.56939229
_cell_angle_alpha   90.00000000
_cell_angle_beta   90.00000000
_cell_angle_gamma   90.00000000
_symmetry_Int_Tables_number   1
_chemical_formula_structural   Ca3AsN
_chemical_formula_sum   'Ca12 As4 N4'
_cell_volume   435.15712294
_cell_formula_units_Z   4
loop_
 _symmetry_equiv_pos_site_id
 _symmetry_equiv_pos_as_xyz
  1  'x, y, z'
loop_
 _atom_site_type_symbol
 _atom_site_label
 _atom_site_symmetry_multiplicity
 _atom_site_fract_x
 _atom_site_fract_y
 _atom_site_fract_z
 _atom_site_occupancy
  N  N0  1  0.00000000  0.50000000  0.50000000  1
  N  N1  1  0.50000000  0.00000000  0.00000000  1
  N  N2  1  0.50000000  0.00000000  0.50000000  1
  N  N3  1  0.00000000  0.50000000  0.00000000  1
  Ca  Ca4  1  0.50607338  0.96190272  0.75000000  1
  Ca  Ca5  1  0.00607338  0.53809728  0.75000000  1
  Ca  Ca6  1  0.99392662  0.46190272  0.25000000  1
  Ca  Ca7  1  0.49392662  0.03809728  0.25000000  1
  Ca  Ca8  1  0.71723335  0.28275692  0.98037009  1
  Ca  Ca9  1  0.21723335  0.21724308  0.51962991  1
  Ca  Ca10  1  0.78276665  0.78275692  0.01962991  1
  Ca  Ca11  1  0.28276665  0.71724308  0.48037009  1
  Ca  Ca12  1  0.28276665  0.71724308  0.01962991  1
  Ca  Ca13  1  0.78276665  0.78275692  0.48037009  1
  Ca  Ca14  1  0.21723335  0.21724308  0.98037009  1
  Ca  Ca15  1  0.71723335  0.28275692  0.51962991  1
  As  As16  1  0.01653564  0.99788044  0.25000000  1
  As  As17  1  0.51653564  0.50211956  0.25000000  1
  As  As18  1  0.48346436  0.49788044  0.75000000  1
  As  As19  1  0.98346436  0.00211956  0.75000000  1
