# generated using pymatgen
data_Tl3SbSe3
_symmetry_space_group_name_H-M   'P 1'
_cell_length_a   9.70668404
_cell_length_b   9.70668404
_cell_length_c   9.70668404
_cell_angle_alpha   90.00000000
_cell_angle_beta   90.00000000
_cell_angle_gamma   90.00000000
_symmetry_Int_Tables_number   1
_chemical_formula_structural   Tl3SbSe3
_chemical_formula_sum   'Tl12 Sb4 Se12'
_cell_volume   914.56100435
_cell_formula_units_Z   4
loop_
 _symmetry_equiv_pos_site_id
 _symmetry_equiv_pos_as_xyz
  1  'x, y, z'
loop_
 _atom_site_type_symbol
 _atom_site_label
 _atom_site_symmetry_multiplicity
 _atom_site_fract_x
 _atom_site_fract_y
 _atom_site_fract_z
 _atom_site_occupancy
  Se  Se0  1  0.89092921  0.55185925  0.74106475  1
  Se  Se1  1  0.39092921  0.94814075  0.25893525  1
  Se  Se2  1  0.10907079  0.05185925  0.75893525  1
  Se  Se3  1  0.94814075  0.25893525  0.39092921  1
  Se  Se4  1  0.75893525  0.10907079  0.05185925  1
  Se  Se5  1  0.25893525  0.39092921  0.94814075  1
  Se  Se6  1  0.55185925  0.74106475  0.89092921  1
  Se  Se7  1  0.74106475  0.89092921  0.55185925  1
  Se  Se8  1  0.05185925  0.75893525  0.10907079  1
  Se  Se9  1  0.44814075  0.24106475  0.60907079  1
  Se  Se10  1  0.24106475  0.60907079  0.44814075  1
  Se  Se11  1  0.60907079  0.44814075  0.24106475  1
  Sb  Sb12  1  0.79906778  0.79906778  0.79906778  1
  Sb  Sb13  1  0.70093222  0.20093222  0.29906778  1
  Sb  Sb14  1  0.29906778  0.70093222  0.20093222  1
  Sb  Sb15  1  0.20093222  0.29906778  0.70093222  1
  Tl  Tl16  1  0.68741516  0.81258484  0.18741516  1
  Tl  Tl17  1  0.81258484  0.18741516  0.68741516  1
  Tl  Tl18  1  0.18741516  0.68741516  0.81258484  1
  Tl  Tl19  1  0.31258484  0.31258484  0.31258484  1
  Tl  Tl20  1  0.45016728  0.04983272  0.95016728  1
  Tl  Tl21  1  0.04983272  0.95016728  0.45016728  1
  Tl  Tl22  1  0.95016728  0.45016728  0.04983272  1
  Tl  Tl23  1  0.54983272  0.54983272  0.54983272  1
  Tl  Tl24  1  0.91392817  0.58607183  0.41392817  1
  Tl  Tl25  1  0.58607183  0.41392817  0.91392817  1
  Tl  Tl26  1  0.41392817  0.91392817  0.58607183  1
  Tl  Tl27  1  0.08607183  0.08607183  0.08607183  1
