# generated using pymatgen
data_Ni(RhSe2)2
_symmetry_space_group_name_H-M   'P 1'
_cell_length_a   3.72856466
_cell_length_b   6.39801763
_cell_length_c   6.43002402
_cell_angle_alpha   117.92825787
_cell_angle_beta   106.85399795
_cell_angle_gamma   90.00000000
_symmetry_Int_Tables_number   1
_chemical_formula_structural   Ni(RhSe2)2
_chemical_formula_sum   'Ni1 Rh2 Se4'
_cell_volume   128.02144008
_cell_formula_units_Z   1
loop_
 _symmetry_equiv_pos_site_id
 _symmetry_equiv_pos_as_xyz
  1  'x, y, z'
loop_
 _atom_site_type_symbol
 _atom_site_label
 _atom_site_symmetry_multiplicity
 _atom_site_fract_x
 _atom_site_fract_y
 _atom_site_fract_z
 _atom_site_occupancy
  Ni  Ni0  1  -0.00000000  -0.00000000  -0.00000000  1
  Rh  Rh1  1  0.73602434  0.71713867  0.47204868  1
  Rh  Rh2  1  0.26397566  0.28286133  0.52795132  1
  Se  Se3  1  0.63165321  0.97821849  0.26330642  1
  Se  Se4  1  0.36834679  0.02178151  0.73669358  1
  Se  Se5  1  0.88427167  0.55157594  0.76854334  1
  Se  Se6  1  0.11572833  0.44842406  0.23145666  1
