# generated using pymatgen
data_ZnGeP2
_symmetry_space_group_name_H-M   'P 1'
_cell_length_a   5.50407608
_cell_length_b   5.50407608
_cell_length_c   6.67400261
_cell_angle_alpha   114.35266696
_cell_angle_beta   114.35266694
_cell_angle_gamma   89.99999994
_symmetry_Int_Tables_number   1
_chemical_formula_structural   ZnGeP2
_chemical_formula_sum   'Zn2 Ge2 P4'
_cell_volume   164.24975576
_cell_formula_units_Z   2
loop_
 _symmetry_equiv_pos_site_id
 _symmetry_equiv_pos_as_xyz
  1  'x, y, z'
loop_
 _atom_site_type_symbol
 _atom_site_label
 _atom_site_symmetry_multiplicity
 _atom_site_fract_x
 _atom_site_fract_y
 _atom_site_fract_z
 _atom_site_occupancy
  P  P0  1  0.62500000  0.12912678  0.75000000  1
  P  P1  1  0.87087322  0.87500000  0.25000000  1
  P  P2  1  0.37912678  0.37500000  0.25000000  1
  P  P3  1  0.12500000  0.62087322  0.75000000  1
  Zn  Zn4  1  0.25000000  0.75000000  0.50000000  1
  Zn  Zn5  1  0.00000000  0.00000000  0.00000000  1
  Ge  Ge6  1  0.75000000  0.25000000  0.50000000  1
  Ge  Ge7  1  0.50000000  0.50000000  0.00000000  1
