# generated using pymatgen
data_Rb2Pt3S4
_symmetry_space_group_name_H-M   'P 1'
_cell_length_a   6.39664936
_cell_length_b   6.39664936
_cell_length_c   7.41476046
_cell_angle_alpha   102.89717702
_cell_angle_beta   102.89717695
_cell_angle_gamma   118.85173339
_symmetry_Int_Tables_number   1
_chemical_formula_structural   Rb2Pt3S4
_chemical_formula_sum   'Rb2 Pt3 S4'
_cell_volume   238.78065535
_cell_formula_units_Z   1
loop_
 _symmetry_equiv_pos_site_id
 _symmetry_equiv_pos_as_xyz
  1  'x, y, z'
loop_
 _atom_site_type_symbol
 _atom_site_label
 _atom_site_symmetry_multiplicity
 _atom_site_fract_x
 _atom_site_fract_y
 _atom_site_fract_z
 _atom_site_occupancy
  S  S0  1  0.72096528  0.05722318  0.77818846  1
  S  S1  1  0.27903472  0.94277682  0.22181154  1
  S  S2  1  0.94277682  0.27903472  0.22181154  1
  S  S3  1  0.05722318  0.72096528  0.77818846  1
  Rb  Rb4  1  0.34861320  0.34861320  0.69722639  1
  Rb  Rb5  1  0.65138680  0.65138680  0.30277361  1
  Pt  Pt6  1  0.00000000  0.50000000  0.00000000  1
  Pt  Pt7  1  0.50000000  0.00000000  0.00000000  1
  Pt  Pt8  1  0.00000000  0.00000000  0.00000000  1
