# generated using pymatgen
data_Ga2HgSe4
_symmetry_space_group_name_H-M   'P 1'
_cell_length_a   5.88059431
_cell_length_b   5.88059432
_cell_length_c   6.90379691
_cell_angle_alpha   115.20736909
_cell_angle_beta   115.20736910
_cell_angle_gamma   89.99999997
_symmetry_Int_Tables_number   1
_chemical_formula_structural   Ga2HgSe4
_chemical_formula_sum   'Ga2 Hg1 Se4'
_cell_volume   190.57990781
_cell_formula_units_Z   1
loop_
 _symmetry_equiv_pos_site_id
 _symmetry_equiv_pos_as_xyz
  1  'x, y, z'
loop_
 _atom_site_type_symbol
 _atom_site_label
 _atom_site_symmetry_multiplicity
 _atom_site_fract_x
 _atom_site_fract_y
 _atom_site_fract_z
 _atom_site_occupancy
  Ga  Ga0  1  0.50000000  0.50000000  0.00000000  1
  Ga  Ga1  1  0.25000000  0.75000000  0.50000000  1
  Se  Se2  1  0.86409975  0.87617939  0.27806018  1
  Se  Se3  1  0.41396043  0.40188079  0.27806018  1
  Se  Se4  1  0.12382061  0.58603957  0.72193982  1
  Se  Se5  1  0.59811921  0.13590025  0.72193982  1
  Hg  Hg6  1  0.00000000  0.00000000  0.00000000  1
