# generated using pymatgen
data_Y(Al2Fe)4
_symmetry_space_group_name_H-M   'P 1'
_cell_length_a   5.02482798
_cell_length_b   6.64481684
_cell_length_c   6.64481683
_cell_angle_alpha   81.78079989
_cell_angle_beta   67.78387666
_cell_angle_gamma   67.78387668
_symmetry_Int_Tables_number   1
_chemical_formula_structural   Y(Al2Fe)4
_chemical_formula_sum   'Y1 Al8 Fe4'
_cell_volume   190.14635837
_cell_formula_units_Z   1
loop_
 _symmetry_equiv_pos_site_id
 _symmetry_equiv_pos_as_xyz
  1  'x, y, z'
loop_
 _atom_site_type_symbol
 _atom_site_label
 _atom_site_symmetry_multiplicity
 _atom_site_fract_x
 _atom_site_fract_y
 _atom_site_fract_z
 _atom_site_occupancy
  Al  Al0  1  0.34031536  0.65968464  0.65968464  1
  Al  Al1  1  0.00000000  0.34031536  0.65968464  1
  Al  Al2  1  0.00000000  0.65968464  0.34031536  1
  Al  Al3  1  0.65968464  0.34031536  0.34031536  1
  Al  Al4  1  0.27895889  0.22104111  0.22104111  1
  Al  Al5  1  0.50000000  0.77895889  0.22104111  1
  Al  Al6  1  0.50000000  0.22104111  0.77895889  1
  Al  Al7  1  0.72104111  0.77895889  0.77895889  1
  Fe  Fe8  1  0.50000000  0.00000000  0.50000000  1
  Fe  Fe9  1  0.00000000  0.50000000  0.00000000  1
  Fe  Fe10  1  0.50000000  0.50000000  0.00000000  1
  Fe  Fe11  1  0.00000000  0.00000000  0.50000000  1
  Y  Y12  1  0.00000000  0.00000000  0.00000000  1
