# generated using pymatgen
data_ScOF
_symmetry_space_group_name_H-M   'P 1'
_cell_length_a   4.93825806
_cell_length_b   5.33998444
_cell_length_c   5.81576316
_cell_angle_alpha   89.54622459
_cell_angle_beta   90.00000000
_cell_angle_gamma   90.00000000
_symmetry_Int_Tables_number   1
_chemical_formula_structural   ScOF
_chemical_formula_sum   'Sc4 O4 F4'
_cell_volume   153.35815096
_cell_formula_units_Z   4
loop_
 _symmetry_equiv_pos_site_id
 _symmetry_equiv_pos_as_xyz
  1  'x, y, z'
loop_
 _atom_site_type_symbol
 _atom_site_label
 _atom_site_symmetry_multiplicity
 _atom_site_fract_x
 _atom_site_fract_y
 _atom_site_fract_z
 _atom_site_occupancy
  O  O0  1  0.27757609  0.08048270  0.39642608  1
  O  O1  1  0.22242391  0.08048270  0.89642608  1
  O  O2  1  0.72242391  0.91951730  0.60357392  1
  O  O3  1  0.77757609  0.91951730  0.10357392  1
  F  F4  1  0.77354461  0.42477512  0.88210944  1
  F  F5  1  0.72645539  0.42477512  0.38210944  1
  F  F6  1  0.22645539  0.57522488  0.11789056  1
  F  F7  1  0.27354461  0.57522488  0.61789056  1
  Sc  Sc8  1  0.51553349  0.78150011  0.32945114  1
  Sc  Sc9  1  0.01553349  0.21849989  0.17054886  1
  Sc  Sc10  1  0.48446651  0.21849989  0.67054886  1
  Sc  Sc11  1  0.98446651  0.78150011  0.82945114  1
