# generated using pymatgen
data_Sc(AlC)3
_symmetry_space_group_name_H-M   'P 1'
_cell_length_a   3.36162118
_cell_length_b   3.36162118
_cell_length_c   16.78963280
_cell_angle_alpha   90.00000000
_cell_angle_beta   90.00000000
_cell_angle_gamma   120.00000000
_symmetry_Int_Tables_number   1
_chemical_formula_structural   Sc(AlC)3
_chemical_formula_sum   'Sc2 Al6 C6'
_cell_volume   164.31203424
_cell_formula_units_Z   2
loop_
 _symmetry_equiv_pos_site_id
 _symmetry_equiv_pos_as_xyz
  1  'x, y, z'
loop_
 _atom_site_type_symbol
 _atom_site_label
 _atom_site_symmetry_multiplicity
 _atom_site_fract_x
 _atom_site_fract_y
 _atom_site_fract_z
 _atom_site_occupancy
  C  C0  1  0.66666667  0.33333333  0.08658299  1
  C  C1  1  0.66666667  0.33333333  0.75000000  1
  C  C2  1  0.33333333  0.66666667  0.25000000  1
  C  C3  1  0.33333333  0.66666667  0.91341701  1
  C  C4  1  0.66666667  0.33333333  0.41341701  1
  C  C5  1  0.33333333  0.66666667  0.58658299  1
  Al  Al6  1  0.33333333  0.66666667  0.12905317  1
  Al  Al7  1  0.66666667  0.33333333  0.87094683  1
  Al  Al8  1  0.33333333  0.66666667  0.75000000  1
  Al  Al9  1  0.33333333  0.66666667  0.37094683  1
  Al  Al10  1  0.66666667  0.33333333  0.62905317  1
  Al  Al11  1  0.66666667  0.33333333  0.25000000  1
  Sc  Sc12  1  0.00000000  0.00000000  0.00000000  1
  Sc  Sc13  1  0.00000000  0.00000000  0.50000000  1
