# generated using pymatgen
data_ZrNbP
_symmetry_space_group_name_H-M   'P 1'
_cell_length_a   3.59613798
_cell_length_b   6.91241883
_cell_length_c   8.33733597
_cell_angle_alpha   90.00000000
_cell_angle_beta   90.00000000
_cell_angle_gamma   90.00000000
_symmetry_Int_Tables_number   1
_chemical_formula_structural   ZrNbP
_chemical_formula_sum   'Zr4 Nb4 P4'
_cell_volume   207.24959666
_cell_formula_units_Z   4
loop_
 _symmetry_equiv_pos_site_id
 _symmetry_equiv_pos_as_xyz
  1  'x, y, z'
loop_
 _atom_site_type_symbol
 _atom_site_label
 _atom_site_symmetry_multiplicity
 _atom_site_fract_x
 _atom_site_fract_y
 _atom_site_fract_z
 _atom_site_occupancy
  P  P0  1  0.75000000  0.23881175  0.14242480  1
  P  P1  1  0.25000000  0.26118825  0.64242480  1
  P  P2  1  0.75000000  0.73881175  0.35757520  1
  P  P3  1  0.25000000  0.76118825  0.85757520  1
  Zr  Zr4  1  0.25000000  0.03416494  0.33121952  1
  Zr  Zr5  1  0.75000000  0.46583506  0.83121952  1
  Zr  Zr6  1  0.25000000  0.53416494  0.16878048  1
  Zr  Zr7  1  0.75000000  0.96583506  0.66878048  1
  Nb  Nb8  1  0.25000000  0.63922987  0.55963842  1
  Nb  Nb9  1  0.75000000  0.36077013  0.44036158  1
  Nb  Nb10  1  0.25000000  0.13922987  0.94036158  1
  Nb  Nb11  1  0.75000000  0.86077013  0.05963842  1
