# generated using pymatgen
data_Cu2GeSe3
_symmetry_space_group_name_H-M   'P 1'
_cell_length_a   4.04187815
_cell_length_b   5.57784136
_cell_length_c   6.85460261
_cell_angle_alpha   114.00825906
_cell_angle_beta   107.14731376
_cell_angle_gamma   90.00000004
_symmetry_Int_Tables_number   1
_chemical_formula_structural   Cu2GeSe3
_chemical_formula_sum   'Cu2 Ge1 Se3'
_cell_volume   133.61248911
_cell_formula_units_Z   1
loop_
 _symmetry_equiv_pos_site_id
 _symmetry_equiv_pos_as_xyz
  1  'x, y, z'
loop_
 _atom_site_type_symbol
 _atom_site_label
 _atom_site_symmetry_multiplicity
 _atom_site_fract_x
 _atom_site_fract_y
 _atom_site_fract_z
 _atom_site_occupancy
  Cu  Cu0  1  0.83273054  0.57003537  0.66546108  1
  Cu  Cu1  1  0.16726946  0.90457429  0.33453892  1
  Ge  Ge2  1  0.50000000  0.26662748  0.00000000  1
  Se  Se3  1  0.67078207  0.67368409  0.34156414  1
  Se  Se4  1  0.32921793  0.33211994  0.65843586  1
  Se  Se5  1  0.00000000  0.99095884  0.00000000  1
