# generated using pymatgen
data_SrHfO3
_symmetry_space_group_name_H-M   'P 1'
_cell_length_a   5.81690292
_cell_length_b   5.81690292
_cell_length_c   8.22876398
_cell_angle_alpha   90.00000000
_cell_angle_beta   90.00000000
_cell_angle_gamma   90.61641420
_symmetry_Int_Tables_number   1
_chemical_formula_structural   SrHfO3
_chemical_formula_sum   'Sr4 Hf4 O12'
_cell_volume   278.41530356
_cell_formula_units_Z   4
loop_
 _symmetry_equiv_pos_site_id
 _symmetry_equiv_pos_as_xyz
  1  'x, y, z'
loop_
 _atom_site_type_symbol
 _atom_site_label
 _atom_site_symmetry_multiplicity
 _atom_site_fract_x
 _atom_site_fract_y
 _atom_site_fract_z
 _atom_site_occupancy
  O  O0  1  0.96017604  0.45185105  0.75000000  1
  O  O1  1  0.03982396  0.54814895  0.25000000  1
  O  O2  1  0.45185105  0.96017604  0.25000000  1
  O  O3  1  0.54814895  0.03982396  0.75000000  1
  O  O4  1  0.21815076  0.78184924  0.54280113  1
  O  O5  1  0.78184924  0.21815076  0.04280113  1
  O  O6  1  0.78184924  0.21815076  0.45719887  1
  O  O7  1  0.21815076  0.78184924  0.95719887  1
  O  O8  1  0.28420243  0.28420243  0.00000000  1
  O  O9  1  0.71579757  0.71579757  0.50000000  1
  O  O10  1  0.71579757  0.71579757  0.00000000  1
  O  O11  1  0.28420243  0.28420243  0.50000000  1
  Sr  Sr12  1  0.99040507  0.00959493  0.75000000  1
  Sr  Sr13  1  0.00959493  0.99040507  0.25000000  1
  Sr  Sr14  1  0.49387867  0.50612133  0.75000000  1
  Sr  Sr15  1  0.50612133  0.49387867  0.25000000  1
  Hf  Hf16  1  0.50000000  0.00000000  0.00000000  1
  Hf  Hf17  1  0.50000000  0.00000000  0.50000000  1
  Hf  Hf18  1  0.00000000  0.50000000  0.00000000  1
  Hf  Hf19  1  0.00000000  0.50000000  0.50000000  1
