# generated using pymatgen
data_CoAs3
_symmetry_space_group_name_H-M   'P 1'
_cell_length_a   7.16242042
_cell_length_b   7.16242042
_cell_length_c   7.16242042
_cell_angle_alpha   109.47122061
_cell_angle_beta   109.47122061
_cell_angle_gamma   109.47122070
_symmetry_Int_Tables_number   1
_chemical_formula_structural   CoAs3
_chemical_formula_sum   'Co4 As12'
_cell_volume   282.85088232
_cell_formula_units_Z   4
loop_
 _symmetry_equiv_pos_site_id
 _symmetry_equiv_pos_as_xyz
  1  'x, y, z'
loop_
 _atom_site_type_symbol
 _atom_site_label
 _atom_site_symmetry_multiplicity
 _atom_site_fract_x
 _atom_site_fract_y
 _atom_site_fract_z
 _atom_site_occupancy
  Co  Co0  1  0.50000000  0.00000000  0.00000000  1
  Co  Co1  1  0.00000000  0.00000000  0.50000000  1
  Co  Co2  1  0.00000000  0.50000000  0.00000000  1
  Co  Co3  1  0.50000000  0.50000000  0.50000000  1
  As  As4  1  0.65879289  0.81077751  0.15198462  1
  As  As5  1  0.84801538  0.34120711  0.18922249  1
  As  As6  1  0.65879289  0.50680827  0.84801538  1
  As  As7  1  0.34120711  0.49319173  0.15198462  1
  As  As8  1  0.15198462  0.34120711  0.49319173  1
  As  As9  1  0.81077751  0.15198462  0.65879289  1
  As  As10  1  0.18922249  0.84801538  0.34120711  1
  As  As11  1  0.50680827  0.84801538  0.65879289  1
  As  As12  1  0.84801538  0.65879289  0.50680827  1
  As  As13  1  0.34120711  0.18922249  0.84801538  1
  As  As14  1  0.15198462  0.65879289  0.81077751  1
  As  As15  1  0.49319173  0.15198462  0.34120711  1
