# generated using pymatgen
data_NiP2
_symmetry_space_group_name_H-M   'P 1'
_cell_length_a   4.28806563
_cell_length_b   4.28806563
_cell_length_c   5.63444687
_cell_angle_alpha   68.34816291
_cell_angle_beta   68.34816291
_cell_angle_gamma   81.79606471
_symmetry_Int_Tables_number   1
_chemical_formula_structural   NiP2
_chemical_formula_sum   'Ni2 P4'
_cell_volume   89.49673247
_cell_formula_units_Z   2
loop_
 _symmetry_equiv_pos_site_id
 _symmetry_equiv_pos_as_xyz
  1  'x, y, z'
loop_
 _atom_site_type_symbol
 _atom_site_label
 _atom_site_symmetry_multiplicity
 _atom_site_fract_x
 _atom_site_fract_y
 _atom_site_fract_z
 _atom_site_occupancy
  Ni  Ni0  1  0.50000000  0.50000000  0.50000000  1
  Ni  Ni1  1  -0.00000000  -0.00000000  0.00000000  1
  P  P2  1  0.91867062  0.18920327  0.33349013  1
  P  P3  1  0.31079673  0.58132938  0.16650987  1
  P  P4  1  0.08132938  0.81079673  0.66650987  1
  P  P5  1  0.68920327  0.41867062  0.83349013  1
