# generated using pymatgen
data_V2NiS4
_symmetry_space_group_name_H-M   'P 1'
_cell_length_a   3.22423520
_cell_length_b   5.85472658
_cell_length_c   6.29195254
_cell_angle_alpha   114.84997906
_cell_angle_beta   104.84582682
_cell_angle_gamma   90.00000006
_symmetry_Int_Tables_number   1
_chemical_formula_structural   V2NiS4
_chemical_formula_sum   'V2 Ni1 S4'
_cell_volume   103.39055947
_cell_formula_units_Z   1
loop_
 _symmetry_equiv_pos_site_id
 _symmetry_equiv_pos_as_xyz
  1  'x, y, z'
loop_
 _atom_site_type_symbol
 _atom_site_label
 _atom_site_symmetry_multiplicity
 _atom_site_fract_x
 _atom_site_fract_y
 _atom_site_fract_z
 _atom_site_occupancy
  S  S0  1  0.10729207  0.44658619  0.21458414  1
  S  S1  1  0.36142051  0.01991089  0.72284103  1
  S  S2  1  0.89270793  0.55341381  0.78541586  1
  S  S3  1  0.63857949  0.98008911  0.27715897  1
  V  V4  1  0.74179138  0.69090518  0.48358276  1
  V  V5  1  0.25820862  0.30909482  0.51641724  1
  Ni  Ni6  1  0.00000000  0.00000000  0.00000000  1
