# generated using pymatgen
data_TiO2
_symmetry_space_group_name_H-M   'P 1'
_cell_length_a   4.85460210
_cell_length_b   5.09281304
_cell_length_c   4.91444041
_cell_angle_alpha   90.00000000
_cell_angle_beta   90.00000000
_cell_angle_gamma   100.11734718
_symmetry_Int_Tables_number   1
_chemical_formula_structural   TiO2
_chemical_formula_sum   'Ti4 O8'
_cell_volume   119.61320488
_cell_formula_units_Z   4
loop_
 _symmetry_equiv_pos_site_id
 _symmetry_equiv_pos_as_xyz
  1  'x, y, z'
loop_
 _atom_site_type_symbol
 _atom_site_label
 _atom_site_symmetry_multiplicity
 _atom_site_fract_x
 _atom_site_fract_y
 _atom_site_fract_z
 _atom_site_occupancy
  O  O0  1  0.55234694  0.03817078  0.25848692  1
  O  O1  1  0.44765306  0.46182922  0.75848692  1
  O  O2  1  0.44765306  0.96182922  0.74151308  1
  O  O3  1  0.55234694  0.53817078  0.24151308  1
  O  O4  1  0.93707246  0.64749749  0.67743413  1
  O  O5  1  0.06292754  0.85250251  0.17743413  1
  O  O6  1  0.06292754  0.35250251  0.32256587  1
  O  O7  1  0.93707246  0.14749749  0.82256587  1
  Ti  Ti8  1  0.72314383  0.28428135  0.55636218  1
  Ti  Ti9  1  0.27685617  0.21571865  0.05636218  1
  Ti  Ti10  1  0.27685617  0.71571865  0.44363782  1
  Ti  Ti11  1  0.72314383  0.78428135  0.94363782  1
