# generated using pymatgen
data_Hf2NiP
_symmetry_space_group_name_H-M   'P 1'
_cell_length_a   3.59291084
_cell_length_b   5.17762997
_cell_length_c   7.49348190
_cell_angle_alpha   110.99432592
_cell_angle_beta   90.00000000
_cell_angle_gamma   90.00000000
_symmetry_Int_Tables_number   1
_chemical_formula_structural   Hf2NiP
_chemical_formula_sum   'Hf4 Ni2 P2'
_cell_volume   130.14556008
_cell_formula_units_Z   2
loop_
 _symmetry_equiv_pos_site_id
 _symmetry_equiv_pos_as_xyz
  1  'x, y, z'
loop_
 _atom_site_type_symbol
 _atom_site_label
 _atom_site_symmetry_multiplicity
 _atom_site_fract_x
 _atom_site_fract_y
 _atom_site_fract_z
 _atom_site_occupancy
  P  P0  1  0.25000000  0.34926632  0.20969402  1
  P  P1  1  0.75000000  0.65073368  0.79030598  1
  Ni  Ni2  1  0.75000000  0.64789934  0.29177409  1
  Ni  Ni3  1  0.25000000  0.35210066  0.70822591  1
  Hf  Hf4  1  0.75000000  0.20727664  0.42838876  1
  Hf  Hf5  1  0.25000000  0.79272336  0.57161124  1
  Hf  Hf6  1  0.25000000  0.79039153  0.07444400  1
  Hf  Hf7  1  0.75000000  0.20960847  0.92555600  1
