# generated using pymatgen
data_Si3Ru4
_symmetry_space_group_name_H-M   'P 1'
_cell_length_a   4.03416726
_cell_length_b   5.23473355
_cell_length_c   17.33926692
_cell_angle_alpha   90.00000000
_cell_angle_beta   90.00000000
_cell_angle_gamma   90.00000000
_symmetry_Int_Tables_number   1
_chemical_formula_structural   Si3Ru4
_chemical_formula_sum   'Si12 Ru16'
_cell_volume   366.16700975
_cell_formula_units_Z   4
loop_
 _symmetry_equiv_pos_site_id
 _symmetry_equiv_pos_as_xyz
  1  'x, y, z'
loop_
 _atom_site_type_symbol
 _atom_site_label
 _atom_site_symmetry_multiplicity
 _atom_site_fract_x
 _atom_site_fract_y
 _atom_site_fract_z
 _atom_site_occupancy
  Ru  Ru0  1  0.75000000  0.65462810  0.76434393  1
  Ru  Ru1  1  0.25000000  0.34537190  0.23565607  1
  Ru  Ru2  1  0.75000000  0.15462810  0.73565607  1
  Ru  Ru3  1  0.25000000  0.84537190  0.26434393  1
  Ru  Ru4  1  0.75000000  0.98958328  0.89299612  1
  Ru  Ru5  1  0.25000000  0.01041672  0.10700388  1
  Ru  Ru6  1  0.75000000  0.48958328  0.60700388  1
  Ru  Ru7  1  0.25000000  0.51041672  0.39299612  1
  Ru  Ru8  1  0.75000000  0.82609546  0.47116065  1
  Ru  Ru9  1  0.25000000  0.17390454  0.52883935  1
  Ru  Ru10  1  0.75000000  0.32609546  0.02883935  1
  Ru  Ru11  1  0.25000000  0.67390454  0.97116065  1
  Ru  Ru12  1  0.75000000  0.65848183  0.16352657  1
  Ru  Ru13  1  0.25000000  0.34151817  0.83647343  1
  Ru  Ru14  1  0.75000000  0.15848183  0.33647343  1
  Ru  Ru15  1  0.25000000  0.84151817  0.66352657  1
  Si  Si16  1  0.75000000  0.99696147  0.60355402  1
  Si  Si17  1  0.25000000  0.00303853  0.39644598  1
  Si  Si18  1  0.75000000  0.49696147  0.89644598  1
  Si  Si19  1  0.25000000  0.50303853  0.10355402  1
  Si  Si20  1  0.75000000  0.85021544  0.03398292  1
  Si  Si21  1  0.25000000  0.14978456  0.96601708  1
  Si  Si22  1  0.75000000  0.35021544  0.46601708  1
  Si  Si23  1  0.25000000  0.64978456  0.53398292  1
  Si  Si24  1  0.75000000  0.62072599  0.30901900  1
  Si  Si25  1  0.25000000  0.37927401  0.69098100  1
  Si  Si26  1  0.75000000  0.12072599  0.19098100  1
  Si  Si27  1  0.25000000  0.87927401  0.80901900  1
