# generated using pymatgen
data_Na5SiP3
_symmetry_space_group_name_H-M   'P 1'
_cell_length_a   7.35209466
_cell_length_b   7.95656251
_cell_length_c   13.16443467
_cell_angle_alpha   90.75695831
_cell_angle_beta   90.00000000
_cell_angle_gamma   90.00000000
_symmetry_Int_Tables_number   1
_chemical_formula_structural   Na5SiP3
_chemical_formula_sum   'Na20 Si4 P12'
_cell_volume   770.01800540
_cell_formula_units_Z   4
loop_
 _symmetry_equiv_pos_site_id
 _symmetry_equiv_pos_as_xyz
  1  'x, y, z'
loop_
 _atom_site_type_symbol
 _atom_site_label
 _atom_site_symmetry_multiplicity
 _atom_site_fract_x
 _atom_site_fract_y
 _atom_site_fract_z
 _atom_site_occupancy
  Na  Na0  1  0.49125040  0.18601817  0.74318895  1
  Na  Na1  1  0.99125040  0.31398183  0.75681105  1
  Na  Na2  1  0.50874960  0.81398183  0.25681105  1
  Na  Na3  1  0.00874960  0.68601817  0.24318895  1
  Na  Na4  1  0.01741240  0.67366833  0.58709764  1
  Na  Na5  1  0.51741240  0.82633167  0.91290236  1
  Na  Na6  1  0.98258760  0.32633167  0.41290236  1
  Na  Na7  1  0.48258760  0.17366833  0.08709764  1
  Na  Na8  1  0.47100091  0.16165647  0.41822788  1
  Na  Na9  1  0.97100091  0.33834353  0.08177212  1
  Na  Na10  1  0.52899909  0.83834353  0.58177212  1
  Na  Na11  1  0.02899909  0.66165647  0.91822788  1
  Na  Na12  1  0.84570650  0.92174766  0.75854630  1
  Na  Na13  1  0.34570650  0.57825234  0.74145370  1
  Na  Na14  1  0.15429350  0.07825234  0.24145370  1
  Na  Na15  1  0.65429350  0.42174766  0.25854630  1
  Na  Na16  1  0.66302292  0.42253147  0.58173207  1
  Na  Na17  1  0.16302292  0.07746853  0.91826793  1
  Na  Na18  1  0.33697708  0.57746853  0.41826793  1
  Na  Na19  1  0.83697708  0.92253147  0.08173207  1
  Si  Si20  1  0.36180711  0.57158066  0.08296963  1
  Si  Si21  1  0.86180711  0.92841934  0.41703037  1
  Si  Si22  1  0.63819289  0.42841934  0.91703037  1
  Si  Si23  1  0.13819289  0.07158066  0.58296963  1
  P  P24  1  0.25814025  0.33716337  0.57911038  1
  P  P25  1  0.75814025  0.16283663  0.92088962  1
  P  P26  1  0.74185975  0.66283663  0.42088962  1
  P  P27  1  0.24185975  0.83716337  0.07911038  1
  P  P28  1  0.22920090  0.92303158  0.72009267  1
  P  P29  1  0.72920090  0.57696842  0.77990733  1
  P  P30  1  0.77079910  0.07696842  0.27990733  1
  P  P31  1  0.27079910  0.42303158  0.22009267  1
  P  P32  1  0.67932586  0.58502311  0.06533047  1
  P  P33  1  0.17932586  0.91497689  0.43466953  1
  P  P34  1  0.32067414  0.41497689  0.93466953  1
  P  P35  1  0.82067414  0.08502311  0.56533047  1
