# generated using pymatgen
data_Ca2CuO3
_symmetry_space_group_name_H-M   'P 1'
_cell_length_a   3.28981064
_cell_length_b   3.83222686
_cell_length_c   6.59456380
_cell_angle_alpha   106.89145783
_cell_angle_beta   104.44399389
_cell_angle_gamma   89.99999996
_symmetry_Int_Tables_number   1
_chemical_formula_structural   Ca2CuO3
_chemical_formula_sum   'Ca2 Cu1 O3'
_cell_volume   76.80223097
_cell_formula_units_Z   1
loop_
 _symmetry_equiv_pos_site_id
 _symmetry_equiv_pos_as_xyz
  1  'x, y, z'
loop_
 _atom_site_type_symbol
 _atom_site_label
 _atom_site_symmetry_multiplicity
 _atom_site_fract_x
 _atom_site_fract_y
 _atom_site_fract_z
 _atom_site_occupancy
  O  O0  1  0.00000000  0.00000000  0.00000000  1
  O  O1  1  0.83944273  0.33944273  0.67888546  1
  O  O2  1  0.16055727  0.66055727  0.32111454  1
  Ca  Ca3  1  0.35084599  0.85084599  0.70169198  1
  Ca  Ca4  1  0.64915401  0.14915401  0.29830802  1
  Cu  Cu5  1  0.00000000  0.50000000  0.00000000  1
