# generated using pymatgen
data_TiSiNi
_symmetry_space_group_name_H-M   'P 1'
_cell_length_a   3.65718864
_cell_length_b   6.14702418
_cell_length_c   7.01542592
_cell_angle_alpha   90.00000000
_cell_angle_beta   90.00000000
_cell_angle_gamma   90.00000000
_symmetry_Int_Tables_number   1
_chemical_formula_structural   TiSiNi
_chemical_formula_sum   'Ti4 Si4 Ni4'
_cell_volume   157.71257645
_cell_formula_units_Z   4
loop_
 _symmetry_equiv_pos_site_id
 _symmetry_equiv_pos_as_xyz
  1  'x, y, z'
loop_
 _atom_site_type_symbol
 _atom_site_label
 _atom_site_symmetry_multiplicity
 _atom_site_fract_x
 _atom_site_fract_y
 _atom_site_fract_z
 _atom_site_occupancy
  Ti  Ti0  1  0.25000000  0.52266013  0.68066902  1
  Ti  Ti1  1  0.75000000  0.97733987  0.18066902  1
  Ti  Ti2  1  0.75000000  0.47733987  0.31933098  1
  Ti  Ti3  1  0.25000000  0.02266013  0.81933098  1
  Si  Si4  1  0.75000000  0.73390759  0.87786004  1
  Si  Si5  1  0.25000000  0.26609241  0.12213996  1
  Si  Si6  1  0.25000000  0.76609241  0.37786004  1
  Si  Si7  1  0.75000000  0.23390759  0.62213996  1
  Ni  Ni8  1  0.75000000  0.35870578  0.93987973  1
  Ni  Ni9  1  0.75000000  0.85870578  0.56012027  1
  Ni  Ni10  1  0.25000000  0.64129422  0.06012027  1
  Ni  Ni11  1  0.25000000  0.14129422  0.43987973  1
