# generated using pymatgen
data_V5Si3
_symmetry_space_group_name_H-M   'P 1'
_cell_length_a   4.72971130
_cell_length_b   7.05855183
_cell_length_c   7.05855185
_cell_angle_alpha   83.55508684
_cell_angle_beta   70.42538082
_cell_angle_gamma   70.42538356
_symmetry_Int_Tables_number   1
_chemical_formula_structural   V5Si3
_chemical_formula_sum   'V10 Si6'
_cell_volume   209.19801022
_cell_formula_units_Z   2
loop_
 _symmetry_equiv_pos_site_id
 _symmetry_equiv_pos_as_xyz
  1  'x, y, z'
loop_
 _atom_site_type_symbol
 _atom_site_label
 _atom_site_symmetry_multiplicity
 _atom_site_fract_x
 _atom_site_fract_y
 _atom_site_fract_z
 _atom_site_occupancy
  V  V0  1  0.57475298  0.70021245  0.15028158  1
  V  V1  1  0.25000000  0.50000000  0.50000000  1
  V  V2  1  0.07475298  0.15028158  0.70021245  1
  V  V3  1  0.92524702  0.84971842  0.29978755  1
  V  V4  1  0.75000000  0.50000000  0.50000000  1
  V  V5  1  0.72503456  0.84971842  0.70021245  1
  V  V6  1  0.42524702  0.29978755  0.84971842  1
  V  V7  1  0.77496544  0.29978755  0.15028158  1
  V  V8  1  0.27496544  0.15028158  0.29978755  1
  V  V9  1  0.22503456  0.70021245  0.84971842  1
  Si  Si10  1  0.16589345  0.50000000  0.16821310  1
  Si  Si11  1  0.25000000  0.00000000  0.00000000  1
  Si  Si12  1  0.66589345  0.16821310  0.50000000  1
  Si  Si13  1  0.83410655  0.50000000  0.83178690  1
  Si  Si14  1  0.75000000  0.00000000  0.00000000  1
  Si  Si15  1  0.33410655  0.83178690  0.50000000  1
