# generated using pymatgen
data_CsCuO2
_symmetry_space_group_name_H-M   'P 1'
_cell_length_a   5.37531179
_cell_length_b   5.51505153
_cell_length_c   6.65662166
_cell_angle_alpha   90.00000000
_cell_angle_beta   113.81323719
_cell_angle_gamma   90.00000000
_symmetry_Int_Tables_number   1
_chemical_formula_structural   CsCuO2
_chemical_formula_sum   'Cs2 Cu2 O4'
_cell_volume   180.53640568
_cell_formula_units_Z   2
loop_
 _symmetry_equiv_pos_site_id
 _symmetry_equiv_pos_as_xyz
  1  'x, y, z'
loop_
 _atom_site_type_symbol
 _atom_site_label
 _atom_site_symmetry_multiplicity
 _atom_site_fract_x
 _atom_site_fract_y
 _atom_site_fract_z
 _atom_site_occupancy
  Cs  Cs0  1  0.68297715  0.25000000  0.36595429  1
  Cs  Cs1  1  0.31702285  0.75000000  0.63404571  1
  Cu  Cu2  1  0.99811427  0.25000000  0.99622854  1
  Cu  Cu3  1  0.00188573  0.75000000  0.00377146  1
  O  O4  1  0.89921938  0.99670727  0.79843876  1
  O  O5  1  0.10078062  0.00329273  0.20156124  1
  O  O6  1  0.10078062  0.49670727  0.20156124  1
  O  O7  1  0.89921938  0.50329273  0.79843876  1
