# generated using pymatgen
data_Si5Pt12
_symmetry_space_group_name_H-M   'P 1'
_cell_length_a   5.60811463
_cell_length_b   13.56894435
_cell_length_c   13.56894435
_cell_angle_alpha   90.00000000
_cell_angle_beta   90.00000000
_cell_angle_gamma   90.00000000
_symmetry_Int_Tables_number   1
_chemical_formula_structural   Si5Pt12
_chemical_formula_sum   'Si20 Pt48'
_cell_volume   1032.54503958
_cell_formula_units_Z   4
loop_
 _symmetry_equiv_pos_site_id
 _symmetry_equiv_pos_as_xyz
  1  'x, y, z'
loop_
 _atom_site_type_symbol
 _atom_site_label
 _atom_site_symmetry_multiplicity
 _atom_site_fract_x
 _atom_site_fract_y
 _atom_site_fract_z
 _atom_site_occupancy
  Si  Si0  1  0.98552344  0.63430127  0.43513733  1
  Si  Si1  1  0.56555178  0.63675804  0.94270681  1
  Si  Si2  1  0.43444822  0.05729319  0.13675804  1
  Si  Si3  1  0.43444822  0.44270681  0.36324196  1
  Si  Si4  1  0.56555178  0.86324196  0.55729319  1
  Si  Si5  1  0.50000000  0.75000000  0.25000000  1
  Si  Si6  1  0.01447656  0.93513733  0.36569873  1
  Si  Si7  1  0.98552344  0.86569873  0.06486267  1
  Si  Si8  1  0.43444822  0.36324196  0.05729319  1
  Si  Si9  1  0.01447656  0.36569873  0.56486267  1
  Si  Si10  1  0.01447656  0.13430127  0.93513733  1
  Si  Si11  1  0.98552344  0.43513733  0.86569873  1
  Si  Si12  1  0.56555178  0.55729319  0.63675804  1
  Si  Si13  1  0.01447656  0.56486267  0.13430127  1
  Si  Si14  1  0.43444822  0.13675804  0.44270681  1
  Si  Si15  1  0.94486475  0.25000000  0.25000000  1
  Si  Si16  1  0.98552344  0.06486267  0.63430127  1
  Si  Si17  1  0.05513525  0.75000000  0.75000000  1
  Si  Si18  1  0.56555178  0.94270681  0.86324196  1
  Si  Si19  1  0.50000000  0.25000000  0.75000000  1
  Pt  Pt20  1  0.30711969  0.76813813  0.89684243  1
  Pt  Pt21  1  0.09714056  0.95715582  0.91638361  1
  Pt  Pt22  1  0.30711969  0.89684243  0.73186187  1
  Pt  Pt23  1  0.69288031  0.26813813  0.39684243  1
  Pt  Pt24  1  0.19312640  0.28496397  0.39719261  1
  Pt  Pt25  1  0.09714056  0.58361639  0.95715582  1
  Pt  Pt26  1  0.46305888  0.96359620  0.40336454  1
  Pt  Pt27  1  0.30711969  0.73186187  0.60315757  1
  Pt  Pt28  1  0.46305888  0.40336454  0.53640380  1
  Pt  Pt29  1  0.75468753  0.40575045  0.71273622  1
  Pt  Pt30  1  0.24531247  0.90575045  0.21273622  1
  Pt  Pt31  1  0.80687360  0.89719261  0.71503603  1
  Pt  Pt32  1  0.75468753  0.78726378  0.40575045  1
  Pt  Pt33  1  0.24531247  0.28726378  0.90575045  1
  Pt  Pt34  1  0.53694112  0.59663546  0.46359620  1
  Pt  Pt35  1  0.90285944  0.04284418  0.08361639  1
  Pt  Pt36  1  0.69288031  0.39684243  0.23186187  1
  Pt  Pt37  1  0.24531247  0.59424955  0.28726378  1
  Pt  Pt38  1  0.53694112  0.90336454  0.03640380  1
  Pt  Pt39  1  0.69288031  0.10315757  0.26813813  1
  Pt  Pt40  1  0.90285944  0.08361639  0.45715582  1
  Pt  Pt41  1  0.25407971  0.10378782  0.76971147  1
  Pt  Pt42  1  0.46305888  0.53640380  0.09663546  1
  Pt  Pt43  1  0.24531247  0.21273622  0.59424955  1
  Pt  Pt44  1  0.09714056  0.91638361  0.54284418  1
  Pt  Pt45  1  0.75468753  0.09424955  0.78726378  1
  Pt  Pt46  1  0.19312640  0.21503603  0.10280739  1
  Pt  Pt47  1  0.46305888  0.09663546  0.96359620  1
  Pt  Pt48  1  0.80687360  0.78496397  0.89719261  1
  Pt  Pt49  1  0.74592029  0.26971147  0.89621218  1
  Pt  Pt50  1  0.90285944  0.41638361  0.04284418  1
  Pt  Pt51  1  0.53694112  0.46359620  0.90336454  1
  Pt  Pt52  1  0.75468753  0.71273622  0.09424955  1
  Pt  Pt53  1  0.19312640  0.39719261  0.21503603  1
  Pt  Pt54  1  0.25407971  0.39621218  0.73028853  1
  Pt  Pt55  1  0.80687360  0.71503603  0.60280739  1
  Pt  Pt56  1  0.25407971  0.73028853  0.10378782  1
  Pt  Pt57  1  0.90285944  0.45715582  0.41638361  1
  Pt  Pt58  1  0.74592029  0.60378782  0.26971147  1
  Pt  Pt59  1  0.19312640  0.10280739  0.28496397  1
  Pt  Pt60  1  0.80687360  0.60280739  0.78496397  1
  Pt  Pt61  1  0.74592029  0.89621218  0.23028853  1
  Pt  Pt62  1  0.53694112  0.03640380  0.59663546  1
  Pt  Pt63  1  0.09714056  0.54284418  0.58361639  1
  Pt  Pt64  1  0.74592029  0.23028853  0.60378782  1
  Pt  Pt65  1  0.69288031  0.23186187  0.10315757  1
  Pt  Pt66  1  0.30711969  0.60315757  0.76813813  1
  Pt  Pt67  1  0.25407971  0.76971147  0.39621218  1
