# generated using pymatgen
data_CaAlAu
_symmetry_space_group_name_H-M   'P 1'
_cell_length_a   4.55689252
_cell_length_b   7.33507019
_cell_length_c   7.80542253
_cell_angle_alpha   90.00000000
_cell_angle_beta   90.00000000
_cell_angle_gamma   90.00000000
_symmetry_Int_Tables_number   1
_chemical_formula_structural   CaAlAu
_chemical_formula_sum   'Ca4 Al4 Au4'
_cell_volume   260.89723531
_cell_formula_units_Z   4
loop_
 _symmetry_equiv_pos_site_id
 _symmetry_equiv_pos_as_xyz
  1  'x, y, z'
loop_
 _atom_site_type_symbol
 _atom_site_label
 _atom_site_symmetry_multiplicity
 _atom_site_fract_x
 _atom_site_fract_y
 _atom_site_fract_z
 _atom_site_occupancy
  Ca  Ca0  1  0.25000000  0.01424794  0.68282171  1
  Ca  Ca1  1  0.25000000  0.51424794  0.81717829  1
  Ca  Ca2  1  0.75000000  0.98575206  0.31717829  1
  Ca  Ca3  1  0.75000000  0.48575206  0.18282171  1
  Al  Al4  1  0.75000000  0.84520494  0.93172363  1
  Al  Al5  1  0.25000000  0.15479506  0.06827637  1
  Al  Al6  1  0.25000000  0.65479506  0.43172363  1
  Al  Al7  1  0.75000000  0.34520494  0.56827637  1
  Au  Au8  1  0.25000000  0.79159179  0.11244055  1
  Au  Au9  1  0.75000000  0.20840821  0.88755945  1
  Au  Au10  1  0.75000000  0.70840821  0.61244055  1
  Au  Au11  1  0.25000000  0.29159179  0.38755945  1
