# generated using pymatgen
data_K2NiF4
_symmetry_space_group_name_H-M   'P 1'
_cell_length_a   4.07499844
_cell_length_b   4.07499805
_cell_length_c   7.20137584
_cell_angle_alpha   106.43526748
_cell_angle_beta   106.43526585
_cell_angle_gamma   89.99999746
_symmetry_Int_Tables_number   1
_chemical_formula_structural   K2NiF4
_chemical_formula_sum   'K2 Ni1 F4'
_cell_volume   109.59327104
_cell_formula_units_Z   1
loop_
 _symmetry_equiv_pos_site_id
 _symmetry_equiv_pos_as_xyz
  1  'x, y, z'
loop_
 _atom_site_type_symbol
 _atom_site_label
 _atom_site_symmetry_multiplicity
 _atom_site_fract_x
 _atom_site_fract_y
 _atom_site_fract_z
 _atom_site_occupancy
  K  K0  1  0.35467518  0.35467518  0.70934936  1
  K  K1  1  0.64532482  0.64532482  0.29065064  1
  Ni  Ni2  1  0.00000000  0.00000000  0.00000000  1
  F  F3  1  0.50000000  0.00000000  0.00000000  1
  F  F4  1  0.00000000  0.50000000  0.00000000  1
  F  F5  1  0.15370999  0.15370999  0.30741898  1
  F  F6  1  0.84629001  0.84629001  0.69258102  1
