# generated using pymatgen
data_VIr
_symmetry_space_group_name_H-M   'P 1'
_cell_length_a   2.82268750
_cell_length_b   4.46341358
_cell_length_c   4.46341337
_cell_angle_alpha   98.69653019
_cell_angle_beta   90.00000000
_cell_angle_gamma   90.00000000
_symmetry_Int_Tables_number   1
_chemical_formula_structural   VIr
_chemical_formula_sum   'V2 Ir2'
_cell_volume   55.58723246
_cell_formula_units_Z   2
loop_
 _symmetry_equiv_pos_site_id
 _symmetry_equiv_pos_as_xyz
  1  'x, y, z'
loop_
 _atom_site_type_symbol
 _atom_site_label
 _atom_site_symmetry_multiplicity
 _atom_site_fract_x
 _atom_site_fract_y
 _atom_site_fract_z
 _atom_site_occupancy
  V  V0  1  0.00000000  0.70424332  0.70424332  1
  V  V1  1  0.00000000  0.29575668  0.29575668  1
  Ir  Ir2  1  0.50000000  0.78358777  0.21641223  1
  Ir  Ir3  1  0.50000000  0.21641223  0.78358777  1
