# generated using pymatgen
data_Sr2CuO3
_symmetry_space_group_name_H-M   'P 1'
_cell_length_a   3.54867290
_cell_length_b   3.97322223
_cell_length_c   6.88268141
_cell_angle_alpha   106.77649983
_cell_angle_beta   104.93939968
_cell_angle_gamma   90.00000001
_symmetry_Int_Tables_number   1
_chemical_formula_structural   Sr2CuO3
_chemical_formula_sum   'Sr2 Cu1 O3'
_cell_volume   89.48169498
_cell_formula_units_Z   1
loop_
 _symmetry_equiv_pos_site_id
 _symmetry_equiv_pos_as_xyz
  1  'x, y, z'
loop_
 _atom_site_type_symbol
 _atom_site_label
 _atom_site_symmetry_multiplicity
 _atom_site_fract_x
 _atom_site_fract_y
 _atom_site_fract_z
 _atom_site_occupancy
  O  O0  1  0.00000000  0.00000000  0.00000000  1
  O  O1  1  0.84529186  0.34529186  0.69058372  1
  O  O2  1  0.15470814  0.65470814  0.30941628  1
  Cu  Cu3  1  0.00000000  0.50000000  0.00000000  1
  Sr  Sr4  1  0.64678200  0.14678200  0.29356400  1
  Sr  Sr5  1  0.35321800  0.85321800  0.70643600  1
