# generated using pymatgen
data_V(MoS2)2
_symmetry_space_group_name_H-M   'P 1'
_cell_length_a   3.22698415
_cell_length_b   6.04221660
_cell_length_c   6.60134688
_cell_angle_alpha   113.53975231
_cell_angle_beta   104.14747765
_cell_angle_gamma   89.99999621
_symmetry_Int_Tables_number   1
_chemical_formula_structural   V(MoS2)2
_chemical_formula_sum   'V1 Mo2 S4'
_cell_volume   113.73180941
_cell_formula_units_Z   1
loop_
 _symmetry_equiv_pos_site_id
 _symmetry_equiv_pos_as_xyz
  1  'x, y, z'
loop_
 _atom_site_type_symbol
 _atom_site_label
 _atom_site_symmetry_multiplicity
 _atom_site_fract_x
 _atom_site_fract_y
 _atom_site_fract_z
 _atom_site_occupancy
  V  V0  1  0.00000000  0.00000000  0.00000000  1
  Mo  Mo1  1  0.25855403  0.31546853  0.51710807  1
  Mo  Mo2  1  0.74144597  0.68453147  0.48289193  1
  S  S3  1  0.89523544  0.55977156  0.79047088  1
  S  S4  1  0.63649190  0.97248432  0.27298379  1
  S  S5  1  0.36350810  0.02751568  0.72701621  1
  S  S6  1  0.10476456  0.44022844  0.20952912  1
