# generated using pymatgen
data_FeP4
_symmetry_space_group_name_H-M   'P 1'
_cell_length_a   5.05620896
_cell_length_b   5.78798035
_cell_length_c   11.09396734
_cell_angle_alpha   89.57827458
_cell_angle_beta   89.03444194
_cell_angle_gamma   64.10105292
_symmetry_Int_Tables_number   1
_chemical_formula_structural   FeP4
_chemical_formula_sum   'Fe4 P16'
_cell_volume   292.01839691
_cell_formula_units_Z   4
loop_
 _symmetry_equiv_pos_site_id
 _symmetry_equiv_pos_as_xyz
  1  'x, y, z'
loop_
 _atom_site_type_symbol
 _atom_site_label
 _atom_site_symmetry_multiplicity
 _atom_site_fract_x
 _atom_site_fract_y
 _atom_site_fract_z
 _atom_site_occupancy
  Fe  Fe0  1  0.92409683  0.15180634  0.75000000  1
  Fe  Fe1  1  0.07590317  0.84819366  0.25000000  1
  Fe  Fe2  1  0.00000000  0.50000000  0.50000000  1
  Fe  Fe3  1  0.50000000  0.50000000  0.00000000  1
  P  P4  1  0.45680408  0.20644629  0.47591740  1
  P  P5  1  0.66325037  0.79355371  0.97591740  1
  P  P6  1  0.13146834  0.81357434  0.44999877  1
  P  P7  1  0.05495732  0.81357434  0.05000123  1
  P  P8  1  0.54319592  0.79355371  0.52408260  1
  P  P9  1  0.62924457  0.14447040  0.28413856  1
  P  P10  1  0.77371497  0.85552960  0.78413856  1
  P  P11  1  0.94504268  0.18642566  0.94999877  1
  P  P12  1  0.46978131  0.46423254  0.79302955  1
  P  P13  1  0.37075543  0.85552960  0.71586144  1
  P  P14  1  0.33674963  0.20644629  0.02408260  1
  P  P15  1  0.22628503  0.14447040  0.21586144  1
  P  P16  1  0.93401385  0.53576746  0.29302955  1
  P  P17  1  0.86853166  0.18642566  0.55000123  1
  P  P18  1  0.06598615  0.46423254  0.70697045  1
  P  P19  1  0.53021869  0.53576746  0.20697045  1
