# generated using pymatgen
data_Cd(InSe2)2
_symmetry_space_group_name_H-M   'P 1'
_cell_length_a   5.88839330
_cell_length_b   5.88839331
_cell_length_c   7.37051224
_cell_angle_alpha   113.54418095
_cell_angle_beta   113.54418103
_cell_angle_gamma   90.00000648
_symmetry_Int_Tables_number   1
_chemical_formula_structural   Cd(InSe2)2
_chemical_formula_sum   'Cd1 In2 Se4'
_cell_volume   210.87411283
_cell_formula_units_Z   1
loop_
 _symmetry_equiv_pos_site_id
 _symmetry_equiv_pos_as_xyz
  1  'x, y, z'
loop_
 _atom_site_type_symbol
 _atom_site_label
 _atom_site_symmetry_multiplicity
 _atom_site_fract_x
 _atom_site_fract_y
 _atom_site_fract_z
 _atom_site_occupancy
  Cd  Cd0  1  0.50000000  0.50000000  0.00000000  1
  In  In1  1  0.25000000  0.75000000  0.50000000  1
  In  In2  1  0.75000000  0.25000000  0.50000000  1
  Se  Se3  1  0.34230697  0.34230697  0.23471415  1
  Se  Se4  1  0.65769303  0.10759283  0.76528585  1
  Se  Se5  1  0.89240717  0.89240717  0.23471415  1
  Se  Se6  1  0.10759283  0.65769303  0.76528585  1
