# generated using pymatgen
data_BiO2
_symmetry_space_group_name_H-M   'P 1'
_cell_length_a   5.28161867
_cell_length_b   5.67722326
_cell_length_c   6.80898436
_cell_angle_alpha   106.59969660
_cell_angle_beta   112.82028168
_cell_angle_gamma   90.00000225
_symmetry_Int_Tables_number   1
_chemical_formula_structural   BiO2
_chemical_formula_sum   'Bi4 O8'
_cell_volume   178.91868757
_cell_formula_units_Z   4
loop_
 _symmetry_equiv_pos_site_id
 _symmetry_equiv_pos_as_xyz
  1  'x, y, z'
loop_
 _atom_site_type_symbol
 _atom_site_label
 _atom_site_symmetry_multiplicity
 _atom_site_fract_x
 _atom_site_fract_y
 _atom_site_fract_z
 _atom_site_occupancy
  Bi  Bi0  1  0.72910562  0.25000000  1.00000000  1
  Bi  Bi1  1  0.27089438  0.75000000  0.00000000  1
  Bi  Bi2  1  0.00000000  0.00000000  0.50000000  1
  Bi  Bi3  1  0.50000000  0.50000000  0.50000000  1
  O  O4  1  0.32132473  0.02168405  0.81464249  1
  O  O5  1  0.11489353  0.65012278  0.35131369  1
  O  O6  1  0.88510647  0.34987722  0.64868631  1
  O  O7  1  0.76357985  0.84987722  0.64868631  1
  O  O8  1  0.23642015  0.15012278  0.35131369  1
  O  O9  1  0.49331776  0.52168405  0.81464249  1
  O  O10  1  0.50668224  0.47831595  0.18535751  1
  O  O11  1  0.67867527  0.97831595  0.18535751  1
