# generated using pymatgen
data_MnP4
_symmetry_space_group_name_H-M   'P 1'
_cell_length_a   5.09703733
_cell_length_b   5.84426080
_cell_length_c   21.78562011
_cell_angle_alpha   94.13987677
_cell_angle_beta   90.00000000
_cell_angle_gamma   115.85352845
_symmetry_Int_Tables_number   1
_chemical_formula_structural   MnP4
_chemical_formula_sum   'Mn8 P32'
_cell_volume   582.12375003
_cell_formula_units_Z   8
loop_
 _symmetry_equiv_pos_site_id
 _symmetry_equiv_pos_as_xyz
  1  'x, y, z'
loop_
 _atom_site_type_symbol
 _atom_site_label
 _atom_site_symmetry_multiplicity
 _atom_site_fract_x
 _atom_site_fract_y
 _atom_site_fract_z
 _atom_site_occupancy
  Mn  Mn0  1  0.51448734  0.63161503  0.18175643  1
  Mn  Mn1  1  0.95680799  0.14892252  0.42962074  1
  Mn  Mn2  1  0.80788547  0.85107748  0.07037926  1
  Mn  Mn3  1  0.88287231  0.36838497  0.31824357  1
  Mn  Mn4  1  0.19211453  0.14892252  0.92962074  1
  Mn  Mn5  1  0.11712769  0.63161503  0.68175643  1
  Mn  Mn6  1  0.04319201  0.85107748  0.57037926  1
  Mn  Mn7  1  0.48551266  0.36838497  0.81824357  1
  P  P8  1  0.95551671  0.94826420  0.17025662  1
  P  P9  1  0.41322517  0.44819265  0.45078944  1
  P  P10  1  0.63734102  0.06545634  0.80000877  1
  P  P11  1  0.57188469  0.93454366  0.69999123  1
  P  P12  1  0.96503252  0.55180735  0.04921056  1
  P  P13  1  0.50136013  0.84214726  0.42561846  1
  P  P14  1  0.63800359  0.45999042  0.91646995  1
  P  P15  1  0.90555804  0.15161570  0.53654047  1
  P  P16  1  0.70662508  0.65571381  0.28413876  1
  P  P17  1  0.34078713  0.84214726  0.92561846  1
  P  P18  1  0.99274749  0.94826420  0.67025662  1
  P  P19  1  0.65110225  0.32146518  0.16931014  1
  P  P20  1  0.34889775  0.67853482  0.83068986  1
  P  P21  1  0.67036293  0.32146518  0.66931014  1
  P  P22  1  0.04448329  0.05173580  0.82974338  1
  P  P23  1  0.42811531  0.06545634  0.30000877  1
  P  P24  1  0.17801317  0.54000958  0.58353005  1
  P  P25  1  0.32963707  0.67853482  0.33068986  1
  P  P26  1  0.24605766  0.15161570  0.03654047  1
  P  P27  1  0.09444196  0.84838430  0.46345953  1
  P  P28  1  0.05091127  0.34428619  0.21586124  1
  P  P29  1  0.94908873  0.65571381  0.78413876  1
  P  P30  1  0.29337492  0.34428619  0.71586124  1
  P  P31  1  0.36199641  0.54000958  0.08353005  1
  P  P32  1  0.00725251  0.05173580  0.32974338  1
  P  P33  1  0.36265898  0.93454366  0.19999123  1
  P  P34  1  0.82198683  0.45999042  0.41646995  1
  P  P35  1  0.49863987  0.15785274  0.57438154  1
  P  P36  1  0.75394234  0.84838430  0.96345953  1
  P  P37  1  0.03496748  0.44819265  0.95078944  1
  P  P38  1  0.58677483  0.55180735  0.54921056  1
  P  P39  1  0.65921287  0.15785274  0.07438154  1
