# generated using pymatgen
data_TiAl2
_symmetry_space_group_name_H-M   'P 1'
_cell_length_a   3.96886063
_cell_length_b   3.96886024
_cell_length_c   12.46219215
_cell_angle_alpha   99.16255846
_cell_angle_beta   99.16255756
_cell_angle_gamma   90.00000545
_symmetry_Int_Tables_number   1
_chemical_formula_structural   TiAl2
_chemical_formula_sum   'Ti4 Al8'
_cell_volume   191.26038874
_cell_formula_units_Z   4
loop_
 _symmetry_equiv_pos_site_id
 _symmetry_equiv_pos_as_xyz
  1  'x, y, z'
loop_
 _atom_site_type_symbol
 _atom_site_label
 _atom_site_symmetry_multiplicity
 _atom_site_fract_x
 _atom_site_fract_y
 _atom_site_fract_z
 _atom_site_occupancy
  Ti  Ti0  1  0.54717857  0.79717857  0.59435714  1
  Ti  Ti1  1  0.29717857  0.04717857  0.09435714  1
  Ti  Ti2  1  0.70282143  0.95282143  0.90564286  1
  Ti  Ti3  1  0.45282143  0.20282143  0.40564286  1
  Al  Al4  1  0.78840232  0.53840232  0.07680465  1
  Al  Al5  1  0.62523865  0.37523865  0.75047729  1
  Al  Al6  1  0.12476135  0.87476135  0.74952271  1
  Al  Al7  1  0.21159768  0.46159768  0.92319535  1
  Al  Al8  1  0.03840232  0.28840232  0.57680465  1
  Al  Al9  1  0.37476135  0.62476135  0.24952271  1
  Al  Al10  1  0.87523865  0.12523865  0.25047729  1
  Al  Al11  1  0.96159768  0.71159768  0.42319535  1
