# generated using pymatgen
data_YCo3B2
_symmetry_space_group_name_H-M   'P 1'
_cell_length_a   3.00588764
_cell_length_b   5.01978579
_cell_length_c   5.02172579
_cell_angle_alpha   119.98721744
_cell_angle_beta   90.00000000
_cell_angle_gamma   90.00000000
_symmetry_Int_Tables_number   1
_chemical_formula_structural   YCo3B2
_chemical_formula_sum   'Y1 Co3 B2'
_cell_volume   65.62925576
_cell_formula_units_Z   1
loop_
 _symmetry_equiv_pos_site_id
 _symmetry_equiv_pos_as_xyz
  1  'x, y, z'
loop_
 _atom_site_type_symbol
 _atom_site_label
 _atom_site_symmetry_multiplicity
 _atom_site_fract_x
 _atom_site_fract_y
 _atom_site_fract_z
 _atom_site_occupancy
  Y  Y0  1  0.00000000  0.99999888  1.00000000  1
  Co  Co1  1  0.50000000  0.49999847  0.00000000  1
  Co  Co2  1  0.50000000  0.49999865  0.50000008  1
  Co  Co3  1  0.50000000  0.99999856  0.49999992  1
  B  B4  1  0.00000000  0.33328052  0.66665559  1
  B  B5  1  0.00000000  0.66662493  0.33334441  1
