# generated using pymatgen
data_SrZn2
_symmetry_space_group_name_H-M   'P 1'
_cell_length_a   4.78035417
_cell_length_b   6.02489778
_cell_length_c   6.02489829
_cell_angle_alpha   80.68889526
_cell_angle_beta   66.62692580
_cell_angle_gamma   66.62692478
_symmetry_Int_Tables_number   1
_chemical_formula_structural   SrZn2
_chemical_formula_sum   'Sr2 Zn4'
_cell_volume   146.21206508
_cell_formula_units_Z   2
loop_
 _symmetry_equiv_pos_site_id
 _symmetry_equiv_pos_as_xyz
  1  'x, y, z'
loop_
 _atom_site_type_symbol
 _atom_site_label
 _atom_site_symmetry_multiplicity
 _atom_site_fract_x
 _atom_site_fract_y
 _atom_site_fract_z
 _atom_site_occupancy
  Sr  Sr0  1  0.95109986  0.79890014  0.29890014  1
  Sr  Sr1  1  0.04890014  0.20109986  0.70109986  1
  Zn  Zn2  1  0.33502039  0.22814352  0.10181569  1
  Zn  Zn3  1  0.66497961  0.77185648  0.89818431  1
  Zn  Zn4  1  0.33502039  0.60181569  0.72814352  1
  Zn  Zn5  1  0.66497961  0.39818431  0.27185648  1
