# generated using pymatgen
data_As3Ir
_symmetry_space_group_name_H-M   'P 1'
_cell_length_a   7.44435705
_cell_length_b   7.44435746
_cell_length_c   7.44435764
_cell_angle_alpha   109.47122115
_cell_angle_beta   109.47122225
_cell_angle_gamma   109.47122194
_symmetry_Int_Tables_number   1
_chemical_formula_structural   As3Ir
_chemical_formula_sum   'As12 Ir4'
_cell_volume   317.58481858
_cell_formula_units_Z   4
loop_
 _symmetry_equiv_pos_site_id
 _symmetry_equiv_pos_as_xyz
  1  'x, y, z'
loop_
 _atom_site_type_symbol
 _atom_site_label
 _atom_site_symmetry_multiplicity
 _atom_site_fract_x
 _atom_site_fract_y
 _atom_site_fract_z
 _atom_site_occupancy
  Ir  Ir0  1  0.50000000  0.50000000  0.50000000  1
  Ir  Ir1  1  0.00000000  0.50000000  0.00000000  1
  Ir  Ir2  1  0.00000000  0.00000000  0.50000000  1
  Ir  Ir3  1  0.50000000  0.00000000  0.00000000  1
  As  As4  1  0.49369864  0.14584502  0.34785361  1
  As  As5  1  0.14584502  0.65214639  0.79799141  1
  As  As6  1  0.34785361  0.20200859  0.85415498  1
  As  As7  1  0.85415498  0.65214639  0.50630136  1
  As  As8  1  0.65214639  0.79799141  0.14584502  1
  As  As9  1  0.85415498  0.34785361  0.20200859  1
  As  As10  1  0.65214639  0.50630136  0.85415498  1
  As  As11  1  0.34785361  0.49369864  0.14584502  1
  As  As12  1  0.14584502  0.34785361  0.49369864  1
  As  As13  1  0.79799141  0.14584502  0.65214639  1
  As  As14  1  0.20200859  0.85415498  0.34785361  1
  As  As15  1  0.50630136  0.85415498  0.65214639  1
