# generated using pymatgen
data_MgCo
_symmetry_space_group_name_H-M   'P 1'
_cell_length_a   7.99139819
_cell_length_b   7.99139840
_cell_length_c   7.99139875
_cell_angle_alpha   60.00000200
_cell_angle_beta   60.00000114
_cell_angle_gamma   60.00000363
_symmetry_Int_Tables_number   1
_chemical_formula_structural   MgCo
_chemical_formula_sum   'Mg12 Co12'
_cell_volume   360.87215963
_cell_formula_units_Z   12
loop_
 _symmetry_equiv_pos_site_id
 _symmetry_equiv_pos_as_xyz
  1  'x, y, z'
loop_
 _atom_site_type_symbol
 _atom_site_label
 _atom_site_symmetry_multiplicity
 _atom_site_fract_x
 _atom_site_fract_y
 _atom_site_fract_z
 _atom_site_occupancy
  Co  Co0  1  0.50000000  0.50000000  0.50000000  1
  Co  Co1  1  0.50000000  0.50000000  0.00000000  1
  Co  Co2  1  0.00000000  0.50000000  0.50000000  1
  Co  Co3  1  0.50000000  0.00000000  0.50000000  1
  Co  Co4  1  0.30001083  0.30001083  0.30001083  1
  Co  Co5  1  0.69998917  0.69998917  0.40003249  1
  Co  Co6  1  0.40003249  0.69998917  0.69998917  1
  Co  Co7  1  0.69998917  0.40003249  0.69998917  1
  Co  Co8  1  0.59996751  0.30001083  0.30001083  1
  Co  Co9  1  0.30001083  0.59996751  0.30001083  1
  Co  Co10  1  0.30001083  0.30001083  0.59996751  1
  Co  Co11  1  0.69998917  0.69998917  0.69998917  1
  Mg  Mg12  1  0.67040059  0.07959941  0.07959941  1
  Mg  Mg13  1  0.92040059  0.92040059  0.32959941  1
  Mg  Mg14  1  0.32959941  0.32959941  0.92040059  1
  Mg  Mg15  1  0.92040059  0.32959941  0.32959941  1
  Mg  Mg16  1  0.92040059  0.32959941  0.92040059  1
  Mg  Mg17  1  0.32959941  0.92040059  0.32959941  1
  Mg  Mg18  1  0.07959941  0.67040059  0.07959941  1
  Mg  Mg19  1  0.07959941  0.07959941  0.67040059  1
  Mg  Mg20  1  0.67040059  0.67040059  0.07959941  1
  Mg  Mg21  1  0.67040059  0.07959941  0.67040059  1
  Mg  Mg22  1  0.32959941  0.92040059  0.92040059  1
  Mg  Mg23  1  0.07959941  0.67040059  0.67040059  1
