# generated using pymatgen
data_Al5Mo
_symmetry_space_group_name_H-M   'P 1'
_cell_length_a   9.19976533
_cell_length_b   9.19976550
_cell_length_c   9.19976528
_cell_angle_alpha   31.25905018
_cell_angle_beta   31.25904848
_cell_angle_gamma   31.25904634
_symmetry_Int_Tables_number   1
_chemical_formula_structural   Al5Mo
_chemical_formula_sum   'Al10 Mo2'
_cell_volume   186.06501347
_cell_formula_units_Z   2
loop_
 _symmetry_equiv_pos_site_id
 _symmetry_equiv_pos_as_xyz
  1  'x, y, z'
loop_
 _atom_site_type_symbol
 _atom_site_label
 _atom_site_symmetry_multiplicity
 _atom_site_fract_x
 _atom_site_fract_y
 _atom_site_fract_z
 _atom_site_occupancy
  Al  Al0  1  0.33082348  0.33082348  0.33082348  1
  Al  Al1  1  0.75000000  0.40383852  0.09616148  1
  Al  Al2  1  0.25000000  0.59616148  0.90383852  1
  Al  Al3  1  0.16917652  0.16917652  0.16917652  1
  Al  Al4  1  0.59616148  0.90383852  0.25000000  1
  Al  Al5  1  0.66917652  0.66917652  0.66917652  1
  Al  Al6  1  0.40383852  0.09616148  0.75000000  1
  Al  Al7  1  0.83082348  0.83082348  0.83082348  1
  Al  Al8  1  0.90383852  0.25000000  0.59616148  1
  Al  Al9  1  0.09616148  0.75000000  0.40383852  1
  Mo  Mo10  1  0.50000000  0.50000000  0.50000000  1
  Mo  Mo11  1  0.00000000  0.00000000  0.00000000  1
