# generated using pymatgen
data_ScNbO4
_symmetry_space_group_name_H-M   'P 1'
_cell_length_a   4.86455757
_cell_length_b   5.15218718
_cell_length_c   5.78052657
_cell_angle_alpha   90.00000000
_cell_angle_beta   90.00000000
_cell_angle_gamma   90.92355408
_symmetry_Int_Tables_number   1
_chemical_formula_structural   ScNbO4
_chemical_formula_sum   'Sc2 Nb2 O8'
_cell_volume   144.85915894
_cell_formula_units_Z   2
loop_
 _symmetry_equiv_pos_site_id
 _symmetry_equiv_pos_as_xyz
  1  'x, y, z'
loop_
 _atom_site_type_symbol
 _atom_site_label
 _atom_site_symmetry_multiplicity
 _atom_site_fract_x
 _atom_site_fract_y
 _atom_site_fract_z
 _atom_site_occupancy
  Sc  Sc0  1  0.50000000  0.75000000  0.68119493  1
  Sc  Sc1  1  0.50000000  0.25000000  0.31880507  1
  Nb  Nb2  1  0.00000000  0.25000000  0.81614452  1
  Nb  Nb3  1  0.00000000  0.75000000  0.18385548  1
  O  O4  1  0.78063297  0.56410492  0.89233722  1
  O  O5  1  0.21936703  0.93589508  0.89233722  1
  O  O6  1  0.78063297  0.06410492  0.10766278  1
  O  O7  1  0.26553485  0.90740147  0.38513386  1
  O  O8  1  0.73446515  0.09259853  0.61486614  1
  O  O9  1  0.21936703  0.43589508  0.10766278  1
  O  O10  1  0.26553485  0.40740147  0.61486614  1
  O  O11  1  0.73446515  0.59259853  0.38513386  1
