# generated using pymatgen
data_Zr2CS
_symmetry_space_group_name_H-M   'P 1'
_cell_length_a   3.43299833
_cell_length_b   3.43299834
_cell_length_c   12.25626273
_cell_angle_alpha   90.00000000
_cell_angle_beta   90.00000000
_cell_angle_gamma   120.00000003
_symmetry_Int_Tables_number   1
_chemical_formula_structural   Zr2CS
_chemical_formula_sum   'Zr4 C2 S2'
_cell_volume   125.09382693
_cell_formula_units_Z   2
loop_
 _symmetry_equiv_pos_site_id
 _symmetry_equiv_pos_as_xyz
  1  'x, y, z'
loop_
 _atom_site_type_symbol
 _atom_site_label
 _atom_site_symmetry_multiplicity
 _atom_site_fract_x
 _atom_site_fract_y
 _atom_site_fract_z
 _atom_site_occupancy
  C  C0  1  0.00000000  0.00000000  0.50000000  1
  C  C1  1  0.00000000  0.00000000  0.00000000  1
  S  S2  1  0.66666667  0.33333333  0.25000000  1
  S  S3  1  0.33333333  0.66666667  0.75000000  1
  Zr  Zr4  1  0.33333333  0.66666667  0.39928726  1
  Zr  Zr5  1  0.66666667  0.33333333  0.89928726  1
  Zr  Zr6  1  0.66666667  0.33333333  0.60071274  1
  Zr  Zr7  1  0.33333333  0.66666667  0.10071274  1
