# generated using pymatgen
data_Cr3C2
_symmetry_space_group_name_H-M   'P 1'
_cell_length_a   2.81550039
_cell_length_b   4.82156575
_cell_length_c   6.91668791
_cell_angle_alpha   90.00000000
_cell_angle_beta   90.00000000
_cell_angle_gamma   106.97590471
_symmetry_Int_Tables_number   1
_chemical_formula_structural   Cr3C2
_chemical_formula_sum   'Cr6 C4'
_cell_volume   89.80364763
_cell_formula_units_Z   2
loop_
 _symmetry_equiv_pos_site_id
 _symmetry_equiv_pos_as_xyz
  1  'x, y, z'
loop_
 _atom_site_type_symbol
 _atom_site_label
 _atom_site_symmetry_multiplicity
 _atom_site_fract_x
 _atom_site_fract_y
 _atom_site_fract_z
 _atom_site_occupancy
  Cr  Cr0  1  0.40111627  0.80223254  0.75000000  1
  Cr  Cr1  1  0.14350174  0.28700349  0.92998850  1
  Cr  Cr2  1  0.59888373  0.19776746  0.25000000  1
  Cr  Cr3  1  0.85649826  0.71299651  0.07001150  1
  Cr  Cr4  1  0.14350174  0.28700349  0.57001150  1
  Cr  Cr5  1  0.85649826  0.71299651  0.42998850  1
  C  C6  1  0.75397098  0.50794196  0.75000000  1
  C  C7  1  0.24602902  0.49205804  0.25000000  1
  C  C8  1  0.50000000  0.00000000  0.00000000  1
  C  C9  1  0.50000000  0.00000000  0.50000000  1
