# generated using pymatgen
data_WO3
_symmetry_space_group_name_H-M   'P 1'
_cell_length_a   7.67572359
_cell_length_b   7.73540871
_cell_length_c   7.77129459
_cell_angle_alpha   90.00000000
_cell_angle_beta   90.03943064
_cell_angle_gamma   90.00000000
_symmetry_Int_Tables_number   1
_chemical_formula_structural   WO3
_chemical_formula_sum   'W8 O24'
_cell_volume   461.41941199
_cell_formula_units_Z   8
loop_
 _symmetry_equiv_pos_site_id
 _symmetry_equiv_pos_as_xyz
  1  'x, y, z'
loop_
 _atom_site_type_symbol
 _atom_site_label
 _atom_site_symmetry_multiplicity
 _atom_site_fract_x
 _atom_site_fract_y
 _atom_site_fract_z
 _atom_site_occupancy
  O  O0  1  0.99991126  0.01270808  0.24244487  1
  O  O1  1  0.50008874  0.51270808  0.25755513  1
  O  O2  1  0.00008774  0.98729192  0.75755513  1
  O  O3  1  0.49991226  0.48729192  0.74244487  1
  O  O4  1  0.00010868  0.48704055  0.24253215  1
  O  O5  1  0.49989132  0.98704155  0.25746785  1
  O  O6  1  0.99989032  0.51295945  0.75746785  1
  O  O7  1  0.50010868  0.01295945  0.74253215  1
  O  O8  1  0.26286703  0.25621310  0.25468661  1
  O  O9  1  0.23713297  0.75621310  0.24531339  1
  O  O10  1  0.73713397  0.74378790  0.74531439  1
  O  O11  1  0.76286703  0.24378690  0.75468561  1
  O  O12  1  0.23691352  0.25627958  0.74759379  1
  O  O13  1  0.26308648  0.75627958  0.75240621  1
  O  O14  1  0.76308548  0.74372042  0.25240621  1
  O  O15  1  0.73691452  0.24372042  0.24759279  1
  O  O16  1  0.75760766  0.99640099  0.49658623  1
  O  O17  1  0.24238547  0.51064530  0.49658750  1
  O  O18  1  0.74238547  0.98935470  0.99658850  1
  O  O19  1  0.75761353  0.48935470  0.50341150  1
  O  O20  1  0.25760766  0.50359901  0.99658623  1
  O  O21  1  0.24239334  0.00359901  0.50341277  1
  O  O22  1  0.74239234  0.49640099  0.00341277  1
  O  O23  1  0.25761353  0.01064530  0.00341150  1
  W  W24  1  0.25066573  0.01608664  0.26570099  1
  W  W25  1  0.24933527  0.51608664  0.23429901  1
  W  W26  1  0.74933427  0.98391336  0.73429901  1
  W  W27  1  0.75066573  0.48391336  0.76569999  1
  W  W28  1  0.24934093  0.01645779  0.76543708  1
  W  W29  1  0.25066007  0.51645779  0.73456392  1
  W  W30  1  0.75065907  0.98354121  0.23456292  1
  W  W31  1  0.74934093  0.48354221  0.26543708  1
