# generated using pymatgen
data_Sc(FeSi)2
_symmetry_space_group_name_H-M   'P 1'
_cell_length_a   4.98411146
_cell_length_b   7.06321311
_cell_length_c   7.44727189
_cell_angle_alpha   90.00000000
_cell_angle_beta   90.00000000
_cell_angle_gamma   90.00000000
_symmetry_Int_Tables_number   1
_chemical_formula_structural   Sc(FeSi)2
_chemical_formula_sum   'Sc4 Fe8 Si8'
_cell_volume   262.17257852
_cell_formula_units_Z   4
loop_
 _symmetry_equiv_pos_site_id
 _symmetry_equiv_pos_as_xyz
  1  'x, y, z'
loop_
 _atom_site_type_symbol
 _atom_site_label
 _atom_site_symmetry_multiplicity
 _atom_site_fract_x
 _atom_site_fract_y
 _atom_site_fract_z
 _atom_site_occupancy
  Sc  Sc0  1  0.75000000  0.90577889  0.75170316  1
  Sc  Sc1  1  0.25000000  0.09422111  0.24829684  1
  Sc  Sc2  1  0.75000000  0.40577889  0.24829684  1
  Sc  Sc3  1  0.25000000  0.59422111  0.75170316  1
  Fe  Fe4  1  0.75000000  0.51126650  0.88405241  1
  Fe  Fe5  1  0.25000000  0.48873350  0.11594759  1
  Fe  Fe6  1  0.75000000  0.01126650  0.11594759  1
  Fe  Fe7  1  0.25000000  0.98873350  0.88405241  1
  Fe  Fe8  1  0.00000000  0.75000000  0.38288469  1
  Fe  Fe9  1  0.50000000  0.25000000  0.61711531  1
  Fe  Fe10  1  0.00000000  0.25000000  0.61711531  1
  Fe  Fe11  1  0.50000000  0.75000000  0.38288469  1
  Si  Si12  1  0.75000000  0.54985170  0.58293369  1
  Si  Si13  1  0.25000000  0.45014830  0.41706631  1
  Si  Si14  1  0.75000000  0.04985170  0.41706631  1
  Si  Si15  1  0.25000000  0.95014830  0.58293369  1
  Si  Si16  1  0.00000000  0.75000000  0.04948384  1
  Si  Si17  1  0.50000000  0.25000000  0.95051616  1
  Si  Si18  1  0.00000000  0.25000000  0.95051616  1
  Si  Si19  1  0.50000000  0.75000000  0.04948384  1
