# generated using pymatgen
data_Be3P2
_symmetry_space_group_name_H-M   'P 1'
_cell_length_a   8.82735588
_cell_length_b   8.82735607
_cell_length_c   8.82735577
_cell_angle_alpha   109.47121993
_cell_angle_beta   109.47122036
_cell_angle_gamma   109.47122044
_symmetry_Int_Tables_number   1
_chemical_formula_structural   Be3P2
_chemical_formula_sum   'Be24 P16'
_cell_volume   529.50495272
_cell_formula_units_Z   8
loop_
 _symmetry_equiv_pos_site_id
 _symmetry_equiv_pos_as_xyz
  1  'x, y, z'
loop_
 _atom_site_type_symbol
 _atom_site_label
 _atom_site_symmetry_multiplicity
 _atom_site_fract_x
 _atom_site_fract_y
 _atom_site_fract_z
 _atom_site_occupancy
  Be  Be0  1  0.50471773  0.24880322  0.99581480  1
  Be  Be1  1  0.75298842  0.50890293  0.50418520  1
  Be  Be2  1  0.99109707  0.74408549  0.99528227  1
  Be  Be3  1  0.74701158  0.25119678  0.75591451  1
  Be  Be4  1  0.00471773  0.00890293  0.25591451  1
  Be  Be5  1  0.50418520  0.75298842  0.50890293  1
  Be  Be6  1  0.24408549  0.25298842  0.74880322  1
  Be  Be7  1  0.49109707  0.49581480  0.24701158  1
  Be  Be8  1  0.75591451  0.74701158  0.25119678  1
  Be  Be9  1  0.75119678  0.00418520  0.49528227  1
  Be  Be10  1  0.00890293  0.25591451  0.00471773  1
  Be  Be11  1  0.00418520  0.49528227  0.75119678  1
  Be  Be12  1  0.25298842  0.74880322  0.24408549  1
  Be  Be13  1  0.24880322  0.99581480  0.50471773  1
  Be  Be14  1  0.25119678  0.75591451  0.74701158  1
  Be  Be15  1  0.74880322  0.24408549  0.25298842  1
  Be  Be16  1  0.49528227  0.75119678  0.00418520  1
  Be  Be17  1  0.74408549  0.99528227  0.99109707  1
  Be  Be18  1  0.99528227  0.99109707  0.74408549  1
  Be  Be19  1  0.99581480  0.50471773  0.24880322  1
  Be  Be20  1  0.50890293  0.50418520  0.75298842  1
  Be  Be21  1  0.49581480  0.24701158  0.49109707  1
  Be  Be22  1  0.24701158  0.49109707  0.49581480  1
  Be  Be23  1  0.25591451  0.00471773  0.00890293  1
  P  P24  1  0.24437367  0.99437367  0.25000000  1
  P  P25  1  0.74437367  0.49437367  0.25000000  1
  P  P26  1  0.49437367  0.25000000  0.74437367  1
  P  P27  1  0.75562633  0.00562633  0.75000000  1
  P  P28  1  0.25000000  0.74437367  0.49437367  1
  P  P29  1  0.99437367  0.25000000  0.24437367  1
  P  P30  1  0.25000000  0.24437367  0.99437367  1
  P  P31  1  0.50562633  0.75000000  0.25562633  1
  P  P32  1  0.75000000  0.75562633  0.00562633  1
  P  P33  1  0.50000000  0.50000000  0.50000000  1
  P  P34  1  0.00562633  0.75000000  0.75562633  1
  P  P35  1  0.00000000  0.00000000  0.50000000  1
  P  P36  1  0.75000000  0.25562633  0.50562633  1
  P  P37  1  0.25562633  0.50562633  0.75000000  1
  P  P38  1  0.00000000  0.50000000  0.00000000  1
  P  P39  1  0.50000000  0.00000000  0.00000000  1
