# generated using pymatgen
data_ZrSb
_symmetry_space_group_name_H-M   'P 1'
_cell_length_a   5.69196992
_cell_length_b   5.69196992
_cell_length_c   5.69196992
_cell_angle_alpha   90.00000000
_cell_angle_beta   90.00000000
_cell_angle_gamma   90.00000000
_symmetry_Int_Tables_number   1
_chemical_formula_structural   ZrSb
_chemical_formula_sum   'Zr4 Sb4'
_cell_volume   184.41141023
_cell_formula_units_Z   4
loop_
 _symmetry_equiv_pos_site_id
 _symmetry_equiv_pos_as_xyz
  1  'x, y, z'
loop_
 _atom_site_type_symbol
 _atom_site_label
 _atom_site_symmetry_multiplicity
 _atom_site_fract_x
 _atom_site_fract_y
 _atom_site_fract_z
 _atom_site_occupancy
  Zr  Zr0  1  0.35665686  0.85665686  0.64334314  1
  Zr  Zr1  1  0.64334314  0.35665686  0.85665686  1
  Zr  Zr2  1  0.85665686  0.64334314  0.35665686  1
  Zr  Zr3  1  0.14334314  0.14334314  0.14334314  1
  Sb  Sb4  1  0.34320781  0.65679219  0.15679219  1
  Sb  Sb5  1  0.84320781  0.84320781  0.84320781  1
  Sb  Sb6  1  0.65679219  0.15679219  0.34320781  1
  Sb  Sb7  1  0.15679219  0.34320781  0.65679219  1
