# generated using pymatgen
data_Sc3CoC4
_symmetry_space_group_name_H-M   'P 1'
_cell_length_a   3.43123478
_cell_length_b   4.34384218
_cell_length_c   6.59942887
_cell_angle_alpha   109.21461392
_cell_angle_beta   105.06795719
_cell_angle_gamma   90.00000000
_symmetry_Int_Tables_number   1
_chemical_formula_structural   Sc3CoC4
_chemical_formula_sum   'Sc3 Co1 C4'
_cell_volume   89.29405516
_cell_formula_units_Z   1
loop_
 _symmetry_equiv_pos_site_id
 _symmetry_equiv_pos_as_xyz
  1  'x, y, z'
loop_
 _atom_site_type_symbol
 _atom_site_label
 _atom_site_symmetry_multiplicity
 _atom_site_fract_x
 _atom_site_fract_y
 _atom_site_fract_z
 _atom_site_occupancy
  Sc  Sc0  1  0.00000000  0.50000000  -0.00000000  1
  Sc  Sc1  1  0.18778575  0.18778575  0.37557149  1
  Sc  Sc2  1  0.81221425  0.81221425  0.62442851  1
  Co  Co3  1  0.50000000  -0.00000000  -0.00000000  1
  C  C4  1  0.37627429  0.20924935  0.75254859  1
  C  C5  1  0.62372571  0.79075065  0.24745141  1
  C  C6  1  0.62372571  0.45670076  0.24745141  1
  C  C7  1  0.37627429  0.54329924  0.75254859  1
