# generated using pymatgen
data_Be12Nb
_symmetry_space_group_name_H-M   'P 1'
_cell_length_a   4.21303830
_cell_length_b   5.58828860
_cell_length_c   5.58828853
_cell_angle_alpha   81.83101115
_cell_angle_beta   67.85495487
_cell_angle_gamma   67.85496160
_symmetry_Int_Tables_number   1
_chemical_formula_structural   Be12Nb
_chemical_formula_sum   'Be12 Nb1'
_cell_volume   112.87380520
_cell_formula_units_Z   1
loop_
 _symmetry_equiv_pos_site_id
 _symmetry_equiv_pos_as_xyz
  1  'x, y, z'
loop_
 _atom_site_type_symbol
 _atom_site_label
 _atom_site_symmetry_multiplicity
 _atom_site_fract_x
 _atom_site_fract_y
 _atom_site_fract_z
 _atom_site_occupancy
  Be  Be0  1  0.50000000  0.78301026  0.21698974  1
  Be  Be1  1  0.35240571  0.64759429  0.64759429  1
  Be  Be2  1  0.00000000  0.35240571  0.64759429  1
  Be  Be3  1  1.00000000  0.64759429  0.35240571  1
  Be  Be4  1  0.71698974  0.78301026  0.78301026  1
  Be  Be5  1  0.50000000  0.00000000  0.50000000  1
  Be  Be6  1  0.50000000  0.21698974  0.78301026  1
  Be  Be7  1  0.64759429  0.35240571  0.35240571  1
  Be  Be8  1  0.28301026  0.21698974  0.21698974  1
  Be  Be9  1  0.50000000  0.50000000  0.00000000  1
  Be  Be10  1  0.00000000  0.50000000  0.00000000  1
  Be  Be11  1  0.00000000  0.00000000  0.50000000  1
  Nb  Nb12  1  0.00000000  0.00000000  0.00000000  1
