# generated using pymatgen
data_Hf5Sn4
_symmetry_space_group_name_H-M   'P 1'
_cell_length_a   8.77427116
_cell_length_b   8.77427126
_cell_length_c   5.91211417
_cell_angle_alpha   90.00000000
_cell_angle_beta   90.00000000
_cell_angle_gamma   119.99999962
_symmetry_Int_Tables_number   1
_chemical_formula_structural   Hf5Sn4
_chemical_formula_sum   'Hf10 Sn8'
_cell_volume   394.18087930
_cell_formula_units_Z   2
loop_
 _symmetry_equiv_pos_site_id
 _symmetry_equiv_pos_as_xyz
  1  'x, y, z'
loop_
 _atom_site_type_symbol
 _atom_site_label
 _atom_site_symmetry_multiplicity
 _atom_site_fract_x
 _atom_site_fract_y
 _atom_site_fract_z
 _atom_site_occupancy
  Sn  Sn0  1  0.00000000  0.00000000  0.00000000  1
  Sn  Sn1  1  0.00000000  0.00000000  0.50000000  1
  Sn  Sn2  1  0.61343564  0.00000000  0.25000000  1
  Sn  Sn3  1  0.61343564  0.61343564  0.75000000  1
  Sn  Sn4  1  1.00000000  0.38656436  0.75000000  1
  Sn  Sn5  1  0.00000000  0.61343564  0.25000000  1
  Sn  Sn6  1  0.38656436  0.38656436  0.25000000  1
  Sn  Sn7  1  0.38656436  0.00000000  0.75000000  1
  Hf  Hf8  1  0.33333300  0.66666700  0.00000000  1
  Hf  Hf9  1  0.66666700  0.33333300  0.50000000  1
  Hf  Hf10  1  0.66666700  0.33333300  0.00000000  1
  Hf  Hf11  1  0.33333300  0.66666700  0.50000000  1
  Hf  Hf12  1  0.28229348  0.00000000  0.25000000  1
  Hf  Hf13  1  0.28229348  0.28229348  0.75000000  1
  Hf  Hf14  1  1.00000000  0.71770652  0.75000000  1
  Hf  Hf15  1  0.00000000  0.28229348  0.25000000  1
  Hf  Hf16  1  0.71770652  0.71770652  0.25000000  1
  Hf  Hf17  1  0.71770652  0.00000000  0.75000000  1
