# generated using pymatgen
data_TaBe12
_symmetry_space_group_name_H-M   'P 1'
_cell_length_a   4.21396023
_cell_length_b   5.57444552
_cell_length_c   5.57444555
_cell_angle_alpha   81.78649528
_cell_angle_beta   67.79191869
_cell_angle_gamma   67.79192866
_symmetry_Int_Tables_number   1
_chemical_formula_structural   TaBe12
_chemical_formula_sum   'Ta1 Be12'
_cell_volume   112.23915397
_cell_formula_units_Z   1
loop_
 _symmetry_equiv_pos_site_id
 _symmetry_equiv_pos_as_xyz
  1  'x, y, z'
loop_
 _atom_site_type_symbol
 _atom_site_label
 _atom_site_symmetry_multiplicity
 _atom_site_fract_x
 _atom_site_fract_y
 _atom_site_fract_z
 _atom_site_occupancy
  Ta  Ta0  1  0.00000000  0.00000000  0.00000000  1
  Be  Be1  1  0.00000000  0.64727919  0.35272081  1
  Be  Be2  1  0.00000000  0.50000000  0.00000000  1
  Be  Be3  1  0.64727919  0.35272081  0.35272081  1
  Be  Be4  1  0.50000000  0.21570741  0.78429259  1
  Be  Be5  1  1.00000000  0.35272081  0.64727919  1
  Be  Be6  1  0.50000000  0.00000000  0.50000000  1
  Be  Be7  1  0.35272081  0.64727919  0.64727919  1
  Be  Be8  1  0.28429259  0.21570741  0.21570741  1
  Be  Be9  1  0.50000000  0.78429259  0.21570741  1
  Be  Be10  1  0.00000000  0.00000000  0.50000000  1
  Be  Be11  1  0.71570741  0.78429259  0.78429259  1
  Be  Be12  1  0.50000000  0.50000000  0.00000000  1
