# generated using pymatgen
data_TaFe2
_symmetry_space_group_name_H-M   'P 1'
_cell_length_a   4.78703316
_cell_length_b   4.78703316
_cell_length_c   7.89128479
_cell_angle_alpha   90.00000000
_cell_angle_beta   90.00000000
_cell_angle_gamma   120.00864236
_symmetry_Int_Tables_number   1
_chemical_formula_structural   TaFe2
_chemical_formula_sum   'Ta4 Fe8'
_cell_volume   156.59337804
_cell_formula_units_Z   4
loop_
 _symmetry_equiv_pos_site_id
 _symmetry_equiv_pos_as_xyz
  1  'x, y, z'
loop_
 _atom_site_type_symbol
 _atom_site_label
 _atom_site_symmetry_multiplicity
 _atom_site_fract_x
 _atom_site_fract_y
 _atom_site_fract_z
 _atom_site_occupancy
  Ta  Ta0  1  0.66657162  0.33342838  0.56576505  1
  Ta  Ta1  1  0.33342838  0.66657162  0.43423495  1
  Ta  Ta2  1  0.33342838  0.66657162  0.06576505  1
  Ta  Ta3  1  0.66657162  0.33342838  0.93423495  1
  Fe  Fe4  1  0.00000000  -0.00000000  0.50000000  1
  Fe  Fe5  1  0.00000000  -0.00000000  0.00000000  1
  Fe  Fe6  1  0.16825167  0.33656213  0.75000000  1
  Fe  Fe7  1  0.16838676  0.83161324  0.75000000  1
  Fe  Fe8  1  0.66343787  0.83174833  0.75000000  1
  Fe  Fe9  1  0.83174833  0.66343787  0.25000000  1
  Fe  Fe10  1  0.83161324  0.16838676  0.25000000  1
  Fe  Fe11  1  0.33656213  0.16825167  0.25000000  1
