# generated using pymatgen
data_Si4Rh3
_symmetry_space_group_name_H-M   'P 1'
_cell_length_a   3.65409447
_cell_length_b   5.86649777
_cell_length_c   18.96323475
_cell_angle_alpha   90.00000000
_cell_angle_beta   90.00002522
_cell_angle_gamma   90.00000000
_symmetry_Int_Tables_number   1
_chemical_formula_structural   Si4Rh3
_chemical_formula_sum   'Si16 Rh12'
_cell_volume   406.50987714
_cell_formula_units_Z   4
loop_
 _symmetry_equiv_pos_site_id
 _symmetry_equiv_pos_as_xyz
  1  'x, y, z'
loop_
 _atom_site_type_symbol
 _atom_site_label
 _atom_site_symmetry_multiplicity
 _atom_site_fract_x
 _atom_site_fract_y
 _atom_site_fract_z
 _atom_site_occupancy
  Rh  Rh0  1  0.25000023  0.18773665  0.03194450  1
  Rh  Rh1  1  0.74999977  0.81226335  0.96805550  1
  Rh  Rh2  1  0.74999977  0.68773665  0.46805550  1
  Rh  Rh3  1  0.25000023  0.31226335  0.53194450  1
  Rh  Rh4  1  0.24999891  0.00319349  0.17621230  1
  Rh  Rh5  1  0.75000109  0.99680651  0.82378770  1
  Rh  Rh6  1  0.75000109  0.50319349  0.32378770  1
  Rh  Rh7  1  0.24999891  0.49680651  0.67621230  1
  Rh  Rh8  1  0.24999910  0.11433563  0.32547943  1
  Rh  Rh9  1  0.75000090  0.88566437  0.67452057  1
  Rh  Rh10  1  0.75000090  0.61433563  0.17452057  1
  Rh  Rh11  1  0.24999910  0.38566437  0.82547943  1
  Si  Si12  1  0.25000057  0.38713242  0.14338847  1
  Si  Si13  1  0.74999943  0.61286758  0.85661153  1
  Si  Si14  1  0.74999943  0.88713242  0.35661153  1
  Si  Si15  1  0.25000057  0.11286758  0.64338847  1
  Si  Si16  1  0.74999947  0.22010972  0.23172996  1
  Si  Si17  1  0.25000053  0.77989028  0.76827004  1
  Si  Si18  1  0.25000053  0.72010972  0.26827004  1
  Si  Si19  1  0.74999947  0.27989028  0.73172996  1
  Si  Si20  1  0.25000029  0.43083005  0.40952029  1
  Si  Si21  1  0.74999971  0.56916995  0.59047971  1
  Si  Si22  1  0.74999971  0.93083005  0.09047971  1
  Si  Si23  1  0.25000029  0.06916995  0.90952029  1
  Si  Si24  1  0.75000020  0.47933572  0.04934422  1
  Si  Si25  1  0.24999980  0.52066428  0.95065578  1
  Si  Si26  1  0.24999980  0.97933572  0.45065578  1
  Si  Si27  1  0.75000020  0.02066428  0.54934422  1
