# generated using pymatgen
data_YNi3
_symmetry_space_group_name_H-M   'P 1'
_cell_length_a   8.61653019
_cell_length_b   8.61653017
_cell_length_c   8.61653010
_cell_angle_alpha   33.51035321
_cell_angle_beta   33.51035345
_cell_angle_gamma   33.51035246
_symmetry_Int_Tables_number   1
_chemical_formula_structural   YNi3
_chemical_formula_sum   'Y3 Ni9'
_cell_volume   173.66916857
_cell_formula_units_Z   3
loop_
 _symmetry_equiv_pos_site_id
 _symmetry_equiv_pos_as_xyz
  1  'x, y, z'
loop_
 _atom_site_type_symbol
 _atom_site_label
 _atom_site_symmetry_multiplicity
 _atom_site_fract_x
 _atom_site_fract_y
 _atom_site_fract_z
 _atom_site_occupancy
  Y  Y0  1  0.86132859  0.86132859  0.86132859  1
  Y  Y1  1  0.13867141  0.13867141  0.13867141  1
  Y  Y2  1  0.00000000  0.00000000  0.00000000  1
  Ni  Ni3  1  0.41788248  0.41788248  0.91905474  1
  Ni  Ni4  1  0.41788248  0.91905474  0.41788248  1
  Ni  Ni5  1  0.50000000  0.50000000  0.50000000  1
  Ni  Ni6  1  0.08094526  0.58211752  0.58211752  1
  Ni  Ni7  1  0.58211752  0.58211752  0.08094526  1
  Ni  Ni8  1  0.33324329  0.33324329  0.33324329  1
  Ni  Ni9  1  0.91905474  0.41788248  0.41788248  1
  Ni  Ni10  1  0.66675671  0.66675671  0.66675671  1
  Ni  Ni11  1  0.58211752  0.08094526  0.58211752  1
