# generated using pymatgen
data_LiCoF4
_symmetry_space_group_name_H-M   'P 1'
_cell_length_a   4.74813703
_cell_length_b   5.53613748
_cell_length_c   5.62471405
_cell_angle_alpha   114.31626573
_cell_angle_beta   90.00000000
_cell_angle_gamma   90.00000000
_symmetry_Int_Tables_number   1
_chemical_formula_structural   LiCoF4
_chemical_formula_sum   'Li2 Co2 F8'
_cell_volume   134.73656001
_cell_formula_units_Z   2
loop_
 _symmetry_equiv_pos_site_id
 _symmetry_equiv_pos_as_xyz
  1  'x, y, z'
loop_
 _atom_site_type_symbol
 _atom_site_label
 _atom_site_symmetry_multiplicity
 _atom_site_fract_x
 _atom_site_fract_y
 _atom_site_fract_z
 _atom_site_occupancy
  Li  Li0  1  0.50000000  0.50000000  0.00000000  1
  Li  Li1  1  0.00000000  0.50000000  0.50000000  1
  F  F2  1  0.20527640  0.14587063  0.34166494  1
  F  F3  1  0.18013921  0.67821893  0.87229096  1
  F  F4  1  0.79472360  0.85412937  0.65833506  1
  F  F5  1  0.70527640  0.85412937  0.15833506  1
  F  F6  1  0.29472360  0.14587063  0.84166494  1
  F  F7  1  0.81986079  0.32178107  0.12770904  1
  F  F8  1  0.31986079  0.67821893  0.37229096  1
  F  F9  1  0.68013921  0.32178107  0.62770904  1
  Co  Co10  1  0.00000000  0.00000000  0.00000000  1
  Co  Co11  1  0.50000000  0.00000000  0.50000000  1
