# generated using pymatgen
data_Ti2SbP
_symmetry_space_group_name_H-M   'P 1'
_cell_length_a   3.63798290
_cell_length_b   3.63798290
_cell_length_c   12.66618344
_cell_angle_alpha   90.00000000
_cell_angle_beta   90.00000000
_cell_angle_gamma   120.00000000
_symmetry_Int_Tables_number   1
_chemical_formula_structural   Ti2SbP
_chemical_formula_sum   'Ti4 Sb2 P2'
_cell_volume   145.17696464
_cell_formula_units_Z   2
loop_
 _symmetry_equiv_pos_site_id
 _symmetry_equiv_pos_as_xyz
  1  'x, y, z'
loop_
 _atom_site_type_symbol
 _atom_site_label
 _atom_site_symmetry_multiplicity
 _atom_site_fract_x
 _atom_site_fract_y
 _atom_site_fract_z
 _atom_site_occupancy
  P  P0  1  0.00000000  0.00000000  0.50000000  1
  P  P1  1  0.00000000  0.00000000  0.00000000  1
  Ti  Ti2  1  0.66666667  0.33333333  0.60000007  1
  Ti  Ti3  1  0.33333333  0.66666667  0.39999993  1
  Ti  Ti4  1  0.33333333  0.66666667  0.10000007  1
  Ti  Ti5  1  0.66666667  0.33333333  0.89999993  1
  Sb  Sb6  1  0.66666667  0.33333333  0.25000000  1
  Sb  Sb7  1  0.33333333  0.66666667  0.75000000  1
