# generated using pymatgen
data_NaTaN2
_symmetry_space_group_name_H-M   'P 1'
_cell_length_a   3.14027618
_cell_length_b   3.14027618
_cell_length_c   17.11522600
_cell_angle_alpha   90.00000000
_cell_angle_beta   90.00000000
_cell_angle_gamma   120.00000382
_symmetry_Int_Tables_number   1
_chemical_formula_structural   NaTaN2
_chemical_formula_sum   'Na3 Ta3 N6'
_cell_volume   146.16686874
_cell_formula_units_Z   3
loop_
 _symmetry_equiv_pos_site_id
 _symmetry_equiv_pos_as_xyz
  1  'x, y, z'
loop_
 _atom_site_type_symbol
 _atom_site_label
 _atom_site_symmetry_multiplicity
 _atom_site_fract_x
 _atom_site_fract_y
 _atom_site_fract_z
 _atom_site_occupancy
  Na  Na0  1  0.66666700  0.33333300  0.83333300  1
  Na  Na1  1  0.33333300  0.66666700  0.16666700  1
  Na  Na2  1  0.00000000  0.00000000  0.50000000  1
  Ta  Ta3  1  0.33333300  0.66666700  0.66666700  1
  Ta  Ta4  1  0.00000000  0.00000000  0.00000000  1
  Ta  Ta5  1  0.66666700  0.33333300  0.33333300  1
  N  N6  1  0.33333300  0.66666700  0.93582700  1
  N  N7  1  0.00000000  0.00000000  0.73084000  1
  N  N8  1  0.00000000  0.00000000  0.26916000  1
  N  N9  1  0.66666700  0.33333300  0.06417300  1
  N  N10  1  0.66666700  0.33333300  0.60249300  1
  N  N11  1  0.33333300  0.66666700  0.39750700  1
