# generated using pymatgen
data_CuWO4
_symmetry_space_group_name_H-M   'P 1'
_cell_length_a   4.80488103
_cell_length_b   4.99115364
_cell_length_c   6.00439012
_cell_angle_alpha   86.42271637
_cell_angle_beta   81.82541319
_cell_angle_gamma   85.57592152
_symmetry_Int_Tables_number   1
_chemical_formula_structural   CuWO4
_chemical_formula_sum   'Cu2 W2 O8'
_cell_volume   141.91582318
_cell_formula_units_Z   2
loop_
 _symmetry_equiv_pos_site_id
 _symmetry_equiv_pos_as_xyz
  1  'x, y, z'
loop_
 _atom_site_type_symbol
 _atom_site_label
 _atom_site_symmetry_multiplicity
 _atom_site_fract_x
 _atom_site_fract_y
 _atom_site_fract_z
 _atom_site_occupancy
  O  O0  1  0.21364112  0.05099666  0.08523164  1
  O  O1  1  0.78635888  0.94900334  0.91476836  1
  O  O2  1  0.26750489  0.09581778  0.61786147  1
  O  O3  1  0.73249511  0.90418222  0.38213853  1
  O  O4  1  0.24878364  0.56688997  0.34497932  1
  O  O5  1  0.75121636  0.43311003  0.65502068  1
  O  O6  1  0.21586663  0.56880651  0.87789985  1
  O  O7  1  0.78413337  0.43119349  0.12210015  1
  Cu  Cu8  1  0.49360073  0.75000148  0.65257687  1
  Cu  Cu9  1  0.50639927  0.24999852  0.34742313  1
  W  W10  1  0.01157512  0.74378871  0.16527617  1
  W  W11  1  0.98842488  0.25621129  0.83472383  1
