# generated using pymatgen
data_HfCr2
_symmetry_space_group_name_H-M   'P 1'
_cell_length_a   5.03907213
_cell_length_b   5.03907213
_cell_length_c   8.09511108
_cell_angle_alpha   90.00000000
_cell_angle_beta   90.00000000
_cell_angle_gamma   120.00717783
_symmetry_Int_Tables_number   1
_chemical_formula_structural   HfCr2
_chemical_formula_sum   'Hf4 Cr8'
_cell_volume   178.00130167
_cell_formula_units_Z   4
loop_
 _symmetry_equiv_pos_site_id
 _symmetry_equiv_pos_as_xyz
  1  'x, y, z'
loop_
 _atom_site_type_symbol
 _atom_site_label
 _atom_site_symmetry_multiplicity
 _atom_site_fract_x
 _atom_site_fract_y
 _atom_site_fract_z
 _atom_site_occupancy
  Hf  Hf0  1  0.66667141  0.33332859  0.56030667  1
  Hf  Hf1  1  0.33332859  0.66667141  0.43969333  1
  Hf  Hf2  1  0.33332859  0.66667141  0.06030667  1
  Hf  Hf3  1  0.66667141  0.33332859  0.93969333  1
  Cr  Cr4  1  -0.00000000  -0.00000000  0.50000000  1
  Cr  Cr5  1  -0.00000000  -0.00000000  -0.00000000  1
  Cr  Cr6  1  0.16882723  0.33767081  0.75000000  1
  Cr  Cr7  1  0.16886059  0.83113941  0.75000000  1
  Cr  Cr8  1  0.66232919  0.83117277  0.75000000  1
  Cr  Cr9  1  0.83117277  0.66232919  0.25000000  1
  Cr  Cr10  1  0.83113941  0.16886059  0.25000000  1
  Cr  Cr11  1  0.33767081  0.16882723  0.25000000  1
