# generated using pymatgen
data_CoAs
_symmetry_space_group_name_H-M   'P 1'
_cell_length_a   3.46896173
_cell_length_b   5.31571782
_cell_length_c   5.82498610
_cell_angle_alpha   90.00000000
_cell_angle_beta   90.00000000
_cell_angle_gamma   90.00000000
_symmetry_Int_Tables_number   1
_chemical_formula_structural   CoAs
_chemical_formula_sum   'Co4 As4'
_cell_volume   107.41287000
_cell_formula_units_Z   4
loop_
 _symmetry_equiv_pos_site_id
 _symmetry_equiv_pos_as_xyz
  1  'x, y, z'
loop_
 _atom_site_type_symbol
 _atom_site_label
 _atom_site_symmetry_multiplicity
 _atom_site_fract_x
 _atom_site_fract_y
 _atom_site_fract_z
 _atom_site_occupancy
  Co  Co0  1  0.76033723  0.49905661  0.69761852  1
  Co  Co1  1  0.76033723  0.99905661  0.80238148  1
  Co  Co2  1  0.26033723  0.50094339  0.30238148  1
  Co  Co3  1  0.26033723  0.00094339  0.19761852  1
  As  As4  1  0.76126277  0.79982345  0.41152691  1
  As  As5  1  0.26126277  0.70017655  0.91152691  1
  As  As6  1  0.26126277  0.20017655  0.58847309  1
  As  As7  1  0.76126277  0.29982345  0.08847309  1
