# generated using pymatgen
data_Tl2Pt
_symmetry_space_group_name_H-M   'P 1'
_cell_length_a   5.68076974
_cell_length_b   5.73261849
_cell_length_c   5.73261891
_cell_angle_alpha   75.78872352
_cell_angle_beta   60.29874388
_cell_angle_gamma   60.29874727
_symmetry_Int_Tables_number   1
_chemical_formula_structural   Tl2Pt
_chemical_formula_sum   'Tl4 Pt2'
_cell_volume   140.85543663
_cell_formula_units_Z   2
loop_
 _symmetry_equiv_pos_site_id
 _symmetry_equiv_pos_as_xyz
  1  'x, y, z'
loop_
 _atom_site_type_symbol
 _atom_site_label
 _atom_site_symmetry_multiplicity
 _atom_site_fract_x
 _atom_site_fract_y
 _atom_site_fract_z
 _atom_site_occupancy
  Tl  Tl0  1  0.66073427  0.17853145  0.50000000  1
  Tl  Tl1  1  0.83926573  0.50000000  0.82146855  1
  Tl  Tl2  1  0.33926573  0.82146855  0.50000000  1
  Tl  Tl3  1  0.16073427  0.50000000  0.17853145  1
  Pt  Pt4  1  0.25000000  0.00000000  0.00000000  1
  Pt  Pt5  1  0.75000000  0.00000000  0.00000000  1
