# generated using pymatgen
data_SiO2
_symmetry_space_group_name_H-M   'P 1'
_cell_length_a   10.11250662
_cell_length_b   10.11269358
_cell_length_c   10.27172499
_cell_angle_alpha   119.48969279
_cell_angle_beta   119.48859740
_cell_angle_gamma   89.99990995
_symmetry_Int_Tables_number   1
_chemical_formula_structural   SiO2
_chemical_formula_sum   'Si16 O32'
_cell_volume   754.09474682
_cell_formula_units_Z   16
loop_
 _symmetry_equiv_pos_site_id
 _symmetry_equiv_pos_as_xyz
  1  'x, y, z'
loop_
 _atom_site_type_symbol
 _atom_site_label
 _atom_site_symmetry_multiplicity
 _atom_site_fract_x
 _atom_site_fract_y
 _atom_site_fract_z
 _atom_site_occupancy
  Si  Si0  1  0.49999580  0.49999917  0.49999500  1
  Si  Si1  1  0.49999580  0.49999917  -0.00000500  1
  Si  Si2  1  0.49999580  0.99999917  0.49999500  1
  Si  Si3  1  0.49999580  0.99999917  -0.00000500  1
  Si  Si4  1  0.99999580  0.49999917  0.49999500  1
  Si  Si5  1  0.99999580  0.49999917  -0.00000500  1
  Si  Si6  1  0.99999580  0.99999917  0.49999500  1
  Si  Si7  1  0.99999580  0.99999917  -0.00000500  1
  Si  Si8  1  0.12500430  0.37499827  0.25000500  1
  Si  Si9  1  0.12500430  0.37499827  0.75000500  1
  Si  Si10  1  0.12500430  0.87499827  0.25000500  1
  Si  Si11  1  0.12500430  0.87499827  0.75000500  1
  Si  Si12  1  0.62500430  0.37499827  0.25000500  1
  Si  Si13  1  0.62500430  0.37499827  0.75000500  1
  Si  Si14  1  0.62500430  0.87499827  0.25000500  1
  Si  Si15  1  0.62500430  0.87499827  0.75000500  1
  O  O16  1  0.01851495  0.43750039  0.12499960  1
  O  O17  1  0.01851495  0.43750039  0.62499960  1
  O  O18  1  0.01851495  0.93750039  0.12499960  1
  O  O19  1  0.01851495  0.93750039  0.62499960  1
  O  O20  1  0.51851495  0.43750039  0.12499960  1
  O  O21  1  0.51851495  0.43750039  0.62499960  1
  O  O22  1  0.51851495  0.93750039  0.12499960  1
  O  O23  1  0.51851495  0.93750039  0.62499960  1
  O  O24  1  0.06249924  0.39351444  0.37499876  1
  O  O25  1  0.06249924  0.39351444  0.87499876  1
  O  O26  1  0.06249924  0.89351444  0.37499876  1
  O  O27  1  0.06249924  0.89351444  0.87499876  1
  O  O28  1  0.56249924  0.39351444  0.37499876  1
  O  O29  1  0.56249924  0.39351444  0.87499876  1
  O  O30  1  0.56249924  0.89351444  0.37499876  1
  O  O31  1  0.56249924  0.89351444  0.87499876  1
  O  O32  1  0.10648524  0.18749979  0.12499940  1
  O  O33  1  0.10648524  0.18749979  0.62499940  1
  O  O34  1  0.10648524  0.68749979  0.12499940  1
  O  O35  1  0.10648524  0.68749979  0.62499940  1
  O  O36  1  0.60648524  0.18749979  0.12499940  1
  O  O37  1  0.60648524  0.18749979  0.62499940  1
  O  O38  1  0.60648524  0.68749979  0.12499940  1
  O  O39  1  0.60648524  0.68749979  0.62499940  1
  O  O40  1  0.31250048  0.48148794  0.37500224  1
  O  O41  1  0.31250048  0.48148794  0.87500224  1
  O  O42  1  0.31250048  0.98148794  0.37500224  1
  O  O43  1  0.31250048  0.98148794  0.87500224  1
  O  O44  1  0.81250048  0.48148794  0.37500224  1
  O  O45  1  0.81250048  0.48148794  0.87500224  1
  O  O46  1  0.81250048  0.98148794  0.37500224  1
  O  O47  1  0.81250048  0.98148794  0.87500224  1
