# generated using pymatgen
data_CsCuO
_symmetry_space_group_name_H-M   'P 1'
_cell_length_a   5.04687024
_cell_length_b   6.09621200
_cell_length_c   6.00231538
_cell_angle_alpha   120.51884385
_cell_angle_beta   90.00000000
_cell_angle_gamma   90.00000000
_symmetry_Int_Tables_number   1
_chemical_formula_structural   CsCuO
_chemical_formula_sum   'Cs2 Cu2 O2'
_cell_volume   159.08793054
_cell_formula_units_Z   2
loop_
 _symmetry_equiv_pos_site_id
 _symmetry_equiv_pos_as_xyz
  1  'x, y, z'
loop_
 _atom_site_type_symbol
 _atom_site_label
 _atom_site_symmetry_multiplicity
 _atom_site_fract_x
 _atom_site_fract_y
 _atom_site_fract_z
 _atom_site_occupancy
  Cs  Cs0  1  0.75000000  0.67789193  0.35891980  1
  Cs  Cs1  1  0.25000000  0.31897212  0.64108020  1
  Cu  Cu2  1  0.00000000  0.99699256  1.00000000  1
  Cu  Cu3  1  0.50000000  0.99699256  1.00000000  1
  O  O4  1  0.75000000  0.12715180  0.25915277  1
  O  O5  1  0.25000000  0.86799903  0.74084723  1
