# generated using pymatgen
data_In5S5Br
_symmetry_space_group_name_H-M   'P 1'
_cell_length_a   4.00319744
_cell_length_b   9.23819904
_cell_length_c   15.13720261
_cell_angle_alpha   90.00000000
_cell_angle_beta   90.00000000
_cell_angle_gamma   90.00000000
_symmetry_Int_Tables_number   1
_chemical_formula_structural   In5S5Br
_chemical_formula_sum   'In10 S10 Br2'
_cell_volume   559.80909406
_cell_formula_units_Z   2
loop_
 _symmetry_equiv_pos_site_id
 _symmetry_equiv_pos_as_xyz
  1  'x, y, z'
loop_
 _atom_site_type_symbol
 _atom_site_label
 _atom_site_symmetry_multiplicity
 _atom_site_fract_x
 _atom_site_fract_y
 _atom_site_fract_z
 _atom_site_occupancy
  In  In0  1  0.00000000  0.88721315  0.40312992  1
  In  In1  1  0.50000000  0.11278685  0.90312992  1
  In  In2  1  0.50000000  0.60639416  0.52574659  1
  In  In3  1  0.00000000  0.39360584  0.02574659  1
  In  In4  1  0.50000000  0.18507440  0.30213792  1
  In  In5  1  0.00000000  0.81492560  0.80213792  1
  In  In6  1  0.50000000  0.47957833  0.25588615  1
  In  In7  1  0.00000000  0.52042167  0.75588615  1
  In  In8  1  0.50000000  0.86011710  0.10943723  1
  In  In9  1  0.00000000  0.13988290  0.60943723  1
  Br  Br10  1  0.00000000  0.40294206  0.45842574  1
  Br  Br11  1  0.50000000  0.59705794  0.95842574  1
  S  S12  1  0.50000000  0.70152514  0.36134207  1
  S  S13  1  0.00000000  0.29847486  0.86134207  1
  S  S14  1  0.50000000  0.43481977  0.66191243  1
  S  S15  1  0.00000000  0.56518023  0.16191243  1
  S  S16  1  0.00000000  0.77089346  0.56357908  1
  S  S17  1  0.50000000  0.22910654  0.06357908  1
  S  S18  1  0.50000000  0.05958816  0.45374483  1
  S  S19  1  0.00000000  0.94041184  0.95374483  1
  S  S20  1  0.00000000  0.02874376  0.25133805  1
  S  S21  1  0.50000000  0.97125624  0.75133805  1
