# generated using pymatgen
data_CsCu3O2
_symmetry_space_group_name_H-M   'P 1'
_cell_length_a   5.19399118
_cell_length_b   5.19393887
_cell_length_c   5.59190658
_cell_angle_alpha   90.00244656
_cell_angle_beta   89.99702241
_cell_angle_gamma   120.00064654
_symmetry_Int_Tables_number   1
_chemical_formula_structural   CsCu3O2
_chemical_formula_sum   'Cs1 Cu3 O2'
_cell_volume   130.64288165
_cell_formula_units_Z   1
loop_
 _symmetry_equiv_pos_site_id
 _symmetry_equiv_pos_as_xyz
  1  'x, y, z'
loop_
 _atom_site_type_symbol
 _atom_site_label
 _atom_site_symmetry_multiplicity
 _atom_site_fract_x
 _atom_site_fract_y
 _atom_site_fract_z
 _atom_site_occupancy
  O  O0  1  0.66667662  0.33333253  0.80366500  1
  Cu  Cu1  1  0.50000001  0.49999996  -0.00000008  1
  O  O2  1  0.33332338  0.66666747  0.19633508  1
  Cs  Cs3  1  0.00000007  0.99999999  0.50000000  1
  Cu  Cu4  1  0.99999991  0.49999997  0.00000001  1
  Cu  Cu5  1  0.50000001  0.00000008  -0.00000002  1
