# generated using pymatgen
data_Cr2FeSe4
_symmetry_space_group_name_H-M   'P 1'
_cell_length_a   3.69286903
_cell_length_b   6.38772943
_cell_length_c   6.77657555
_cell_angle_alpha   118.33989888
_cell_angle_beta   105.81148362
_cell_angle_gamma   90.00000003
_symmetry_Int_Tables_number   1
_chemical_formula_structural   Cr2FeSe4
_chemical_formula_sum   'Cr2 Fe1 Se4'
_cell_volume   133.78243281
_cell_formula_units_Z   1
loop_
 _symmetry_equiv_pos_site_id
 _symmetry_equiv_pos_as_xyz
  1  'x, y, z'
loop_
 _atom_site_type_symbol
 _atom_site_label
 _atom_site_symmetry_multiplicity
 _atom_site_fract_x
 _atom_site_fract_y
 _atom_site_fract_z
 _atom_site_occupancy
  Cr  Cr0  1  0.74433434  0.72801022  0.48866868  1
  Cr  Cr1  1  0.25566566  0.27198978  0.51133132  1
  Fe  Fe2  1  0.00000000  0.00000000  0.00000000  1
  Se  Se3  1  0.36970542  0.03463492  0.73941084  1
  Se  Se4  1  0.63029458  0.96536508  0.26058916  1
  Se  Se5  1  0.87797045  0.54729244  0.75594090  1
  Se  Se6  1  0.12202955  0.45270756  0.24405910  1
