# generated using pymatgen
data_Al3Mo
_symmetry_space_group_name_H-M   'P 1'
_cell_length_a   3.60930043
_cell_length_b   8.40519406
_cell_length_c   8.42768864
_cell_angle_alpha   101.69638690
_cell_angle_beta   102.36493937
_cell_angle_gamma   90.00024291
_symmetry_Int_Tables_number   1
_chemical_formula_structural   Al3Mo
_chemical_formula_sum   'Al12 Mo4'
_cell_volume   244.30133521
_cell_formula_units_Z   4
loop_
 _symmetry_equiv_pos_site_id
 _symmetry_equiv_pos_as_xyz
  1  'x, y, z'
loop_
 _atom_site_type_symbol
 _atom_site_label
 _atom_site_symmetry_multiplicity
 _atom_site_fract_x
 _atom_site_fract_y
 _atom_site_fract_z
 _atom_site_occupancy
  Al  Al0  1  0.12636004  0.65569604  0.25267492  1
  Al  Al1  1  0.12509492  0.14606154  0.25042919  1
  Al  Al2  1  0.62505765  0.39694677  0.25018853  1
  Al  Al3  1  0.74868410  0.69534637  0.49742454  1
  Al  Al4  1  0.50350319  0.59754198  0.00686841  1
  Al  Al5  1  0.74970914  0.20488608  0.49943669  1
  Al  Al6  1  0.37195098  0.75574524  0.74395064  1
  Al  Al7  1  0.00314635  0.85621025  0.00620288  1
  Al  Al8  1  0.49729018  0.09368538  0.99467565  1
  Al  Al9  1  0.24994448  0.95332540  0.49986702  1
  Al  Al10  1  0.37709033  0.26055949  0.75414823  1
  Al  Al11  1  0.87214718  0.49775398  0.74415533  1
  Mo  Mo12  1  0.01067247  0.35565150  0.02131525  1
  Mo  Mo13  1  0.63257370  0.90386425  0.26514725  1
  Mo  Mo14  1  0.24248635  0.44746004  0.48495630  1
  Mo  Mo15  1  0.86428893  0.99706568  0.72855917  1
