# generated using pymatgen
data_InCl
_symmetry_space_group_name_H-M   'P 1'
_cell_length_a   4.41143523
_cell_length_b   4.54414566
_cell_length_c   6.59945605
_cell_angle_alpha   90.00000000
_cell_angle_beta   109.52554948
_cell_angle_gamma   90.00000000
_symmetry_Int_Tables_number   1
_chemical_formula_structural   InCl
_chemical_formula_sum   'In2 Cl2'
_cell_volume   124.68615019
_cell_formula_units_Z   2
loop_
 _symmetry_equiv_pos_site_id
 _symmetry_equiv_pos_as_xyz
  1  'x, y, z'
loop_
 _atom_site_type_symbol
 _atom_site_label
 _atom_site_symmetry_multiplicity
 _atom_site_fract_x
 _atom_site_fract_y
 _atom_site_fract_z
 _atom_site_occupancy
  In  In0  1  0.61362093  0.24990327  0.22724186  1
  In  In1  1  0.38637907  0.74990327  0.77275814  1
  Cl  Cl2  1  0.84446051  0.23409673  0.68892101  1
  Cl  Cl3  1  0.15553949  0.73409673  0.31107899  1
