# generated using pymatgen
data_Li15Si4
_symmetry_space_group_name_H-M   'P 1'
_cell_length_a   9.15046601
_cell_length_b   9.15046651
_cell_length_c   9.15046593
_cell_angle_alpha   109.47121935
_cell_angle_beta   109.47122045
_cell_angle_gamma   109.47121971
_symmetry_Int_Tables_number   1
_chemical_formula_structural   Li15Si4
_chemical_formula_sum   'Li30 Si8'
_cell_volume   589.80408807
_cell_formula_units_Z   2
loop_
 _symmetry_equiv_pos_site_id
 _symmetry_equiv_pos_as_xyz
  1  'x, y, z'
loop_
 _atom_site_type_symbol
 _atom_site_label
 _atom_site_symmetry_multiplicity
 _atom_site_fract_x
 _atom_site_fract_y
 _atom_site_fract_z
 _atom_site_occupancy
  Li  Li0  1  0.72301597  0.34037029  0.80952883  1
  Li  Li1  1  0.87500000  0.12500000  0.75000000  1
  Li  Li2  1  0.80952883  0.72301597  0.34037029  1
  Li  Li3  1  0.58651387  0.61735532  0.77698403  1
  Li  Li4  1  0.69047117  0.03084145  0.91348613  1
  Li  Li5  1  0.11735532  0.08651387  0.27698403  1
  Li  Li6  1  0.03084145  0.91348613  0.69047117  1
  Li  Li7  1  0.08651387  0.27698403  0.11735532  1
  Li  Li8  1  0.53084145  0.19047117  0.41348613  1
  Li  Li9  1  0.61735532  0.77698403  0.58651387  1
  Li  Li10  1  0.91348613  0.69047117  0.03084145  1
  Li  Li11  1  0.41348613  0.53084145  0.19047117  1
  Li  Li12  1  0.25000000  0.62500000  0.37500000  1
  Li  Li13  1  0.88264468  0.46915855  0.15962971  1
  Li  Li14  1  0.75000000  0.87500000  0.12500000  1
  Li  Li15  1  0.65962971  0.96915855  0.38264468  1
  Li  Li16  1  0.19047117  0.41348613  0.53084145  1
  Li  Li17  1  0.27698403  0.11735532  0.08651387  1
  Li  Li18  1  0.22301597  0.30952883  0.84037029  1
  Li  Li19  1  0.12500000  0.75000000  0.87500000  1
  Li  Li20  1  0.15962971  0.88264468  0.46915855  1
  Li  Li21  1  0.77698403  0.58651387  0.61735532  1
  Li  Li22  1  0.96915855  0.38264468  0.65962971  1
  Li  Li23  1  0.34037029  0.80952883  0.72301597  1
  Li  Li24  1  0.38264468  0.65962971  0.96915855  1
  Li  Li25  1  0.46915855  0.15962971  0.88264468  1
  Li  Li26  1  0.84037029  0.22301597  0.30952883  1
  Li  Li27  1  0.62500000  0.37500000  0.25000000  1
  Li  Li28  1  0.30952883  0.84037029  0.22301597  1
  Li  Li29  1  0.37500000  0.25000000  0.62500000  1
  Si  Si30  1  0.58485594  0.50000000  0.00000000  1
  Si  Si31  1  0.00000000  0.58485594  0.50000000  1
  Si  Si32  1  0.08485594  0.50000000  0.00000000  1
  Si  Si33  1  0.50000000  0.00000000  0.08485594  1
  Si  Si34  1  0.50000000  0.00000000  0.58485594  1
  Si  Si35  1  0.00000000  0.08485594  0.50000000  1
  Si  Si36  1  0.41514406  0.41514406  0.41514406  1
  Si  Si37  1  0.91514406  0.91514406  0.91514406  1
