# generated using pymatgen
data_ScTaO4
_symmetry_space_group_name_H-M   'P 1'
_cell_length_a   4.84802095
_cell_length_b   5.15524564
_cell_length_c   5.74907691
_cell_angle_alpha   90.00000000
_cell_angle_beta   90.00000000
_cell_angle_gamma   91.48556305
_symmetry_Int_Tables_number   1
_chemical_formula_structural   ScTaO4
_chemical_formula_sum   'Sc2 Ta2 O8'
_cell_volume   143.63688376
_cell_formula_units_Z   2
loop_
 _symmetry_equiv_pos_site_id
 _symmetry_equiv_pos_as_xyz
  1  'x, y, z'
loop_
 _atom_site_type_symbol
 _atom_site_label
 _atom_site_symmetry_multiplicity
 _atom_site_fract_x
 _atom_site_fract_y
 _atom_site_fract_z
 _atom_site_occupancy
  Sc  Sc0  1  0.50000000  0.25000000  0.32290477  1
  Sc  Sc1  1  0.50000000  0.75000000  0.67709523  1
  Ta  Ta2  1  0.00000000  0.25000000  0.82275294  1
  Ta  Ta3  1  0.00000000  0.75000000  0.17724706  1
  O  O4  1  0.21745344  0.43523980  0.10733572  1
  O  O5  1  0.26486466  0.40503709  0.61648875  1
  O  O6  1  0.78254656  0.06476020  0.10733572  1
  O  O7  1  0.73513534  0.59496291  0.38351125  1
  O  O8  1  0.73513534  0.09496291  0.61648875  1
  O  O9  1  0.21745344  0.93523980  0.89266428  1
  O  O10  1  0.26486466  0.90503709  0.38351125  1
  O  O11  1  0.78254656  0.56476020  0.89266428  1
