# generated using pymatgen
data_Nb3TeI7
_symmetry_space_group_name_H-M   'P 1'
_cell_length_a   7.73431471
_cell_length_b   7.73431459
_cell_length_c   7.24533571
_cell_angle_alpha   90.00000000
_cell_angle_beta   90.00000000
_cell_angle_gamma   120.00000049
_symmetry_Int_Tables_number   1
_chemical_formula_structural   Nb3TeI7
_chemical_formula_sum   'Nb3 Te1 I7'
_cell_volume   375.34688408
_cell_formula_units_Z   1
loop_
 _symmetry_equiv_pos_site_id
 _symmetry_equiv_pos_as_xyz
  1  'x, y, z'
loop_
 _atom_site_type_symbol
 _atom_site_label
 _atom_site_symmetry_multiplicity
 _atom_site_fract_x
 _atom_site_fract_y
 _atom_site_fract_z
 _atom_site_occupancy
  Nb  Nb0  1  0.26478012  0.13239006  0.49860822  1
  Nb  Nb1  1  0.86760994  0.13239006  0.49860822  1
  Nb  Nb2  1  0.86760994  0.73521988  0.49860822  1
  Te  Te3  1  0.00000000  0.00000000  0.21120938  1
  I  I4  1  0.66515762  0.83257881  0.75479745  1
  I  I5  1  0.49923605  0.99847210  0.28550655  1
  I  I6  1  0.16742119  0.83257881  0.75479745  1
  I  I7  1  0.00152790  0.50076395  0.28550655  1
  I  I8  1  0.66666700  0.33333300  0.70165394  1
  I  I9  1  0.16742119  0.33484238  0.75479745  1
  I  I10  1  0.49923605  0.50076395  0.28550655  1
