# generated using pymatgen
data_K2CuF4
_symmetry_space_group_name_H-M   'P 1'
_cell_length_a   4.13660563
_cell_length_b   4.13660562
_cell_length_c   7.13474875
_cell_angle_alpha   106.85145868
_cell_angle_beta   106.85145862
_cell_angle_gamma   89.99999999
_symmetry_Int_Tables_number   1
_chemical_formula_structural   K2CuF4
_chemical_formula_sum   'K2 Cu1 F4'
_cell_volume   111.35487519
_cell_formula_units_Z   1
loop_
 _symmetry_equiv_pos_site_id
 _symmetry_equiv_pos_as_xyz
  1  'x, y, z'
loop_
 _atom_site_type_symbol
 _atom_site_label
 _atom_site_symmetry_multiplicity
 _atom_site_fract_x
 _atom_site_fract_y
 _atom_site_fract_z
 _atom_site_occupancy
  F  F0  1  0.15334837  0.15334837  0.30669674  1
  F  F1  1  0.50000000  0.00000000  0.00000000  1
  F  F2  1  0.84665163  0.84665163  0.69330326  1
  F  F3  1  0.00000000  0.50000000  0.00000000  1
  K  K4  1  0.35690016  0.35690016  0.71380032  1
  K  K5  1  0.64309984  0.64309984  0.28619968  1
  Cu  Cu6  1  0.00000000  0.00000000  0.00000000  1
