# generated using pymatgen
data_Na(CoO2)2
_symmetry_space_group_name_H-M   'P 1'
_cell_length_a   4.87695538
_cell_length_b   5.64495409
_cell_length_c   11.38451949
_cell_angle_alpha   90.00000000
_cell_angle_beta   90.00000000
_cell_angle_gamma   90.00000000
_symmetry_Int_Tables_number   1
_chemical_formula_structural   Na(CoO2)2
_chemical_formula_sum   'Na4 Co8 O16'
_cell_volume   313.41797573
_cell_formula_units_Z   4
loop_
 _symmetry_equiv_pos_site_id
 _symmetry_equiv_pos_as_xyz
  1  'x, y, z'
loop_
 _atom_site_type_symbol
 _atom_site_label
 _atom_site_symmetry_multiplicity
 _atom_site_fract_x
 _atom_site_fract_y
 _atom_site_fract_z
 _atom_site_occupancy
  O  O0  1  0.83694313  0.99866159  0.41079398  1
  O  O1  1  0.83694313  0.50133841  0.08920602  1
  O  O2  1  0.16305687  0.49866159  0.58920602  1
  O  O3  1  0.16305687  0.00133841  0.91079398  1
  O  O4  1  0.16305687  0.00133841  0.58920602  1
  O  O5  1  0.16305687  0.49866159  0.91079398  1
  O  O6  1  0.83694313  0.50133841  0.41079398  1
  O  O7  1  0.83694313  0.99866159  0.08920602  1
  O  O8  1  0.67664133  0.25000000  0.58483635  1
  O  O9  1  0.67664133  0.25000000  0.91516365  1
  O  O10  1  0.32335867  0.75000000  0.41516365  1
  O  O11  1  0.32335867  0.75000000  0.08483635  1
  O  O12  1  0.33122616  0.25000000  0.08811051  1
  O  O13  1  0.33122616  0.25000000  0.41188949  1
  O  O14  1  0.66877384  0.75000000  0.91188949  1
  O  O15  1  0.66877384  0.75000000  0.58811051  1
  Na  Na16  1  0.63967773  0.25000000  0.25000000  1
  Na  Na17  1  0.36032227  0.75000000  0.75000000  1
  Na  Na18  1  0.03715882  0.75000000  0.25000000  1
  Na  Na19  1  0.96284118  0.25000000  0.75000000  1
  Co  Co20  1  0.50000000  0.00000000  0.50000000  1
  Co  Co21  1  0.50000000  0.50000000  0.00000000  1
  Co  Co22  1  0.50000000  0.50000000  0.50000000  1
  Co  Co23  1  0.50000000  0.00000000  0.00000000  1
  Co  Co24  1  0.99707418  0.75000000  0.50291646  1
  Co  Co25  1  0.99707418  0.75000000  0.99708354  1
  Co  Co26  1  0.00292582  0.25000000  0.49708354  1
  Co  Co27  1  0.00292582  0.25000000  0.00291646  1
