# generated using pymatgen
data_SbPd2
_symmetry_space_group_name_H-M   'P 1'
_cell_length_a   3.46351783
_cell_length_b   7.03518469
_cell_length_c   9.04719904
_cell_angle_alpha   90.00000000
_cell_angle_beta   101.03530344
_cell_angle_gamma   90.00000000
_symmetry_Int_Tables_number   1
_chemical_formula_structural   SbPd2
_chemical_formula_sum   'Sb4 Pd8'
_cell_volume   216.37224504
_cell_formula_units_Z   4
loop_
 _symmetry_equiv_pos_site_id
 _symmetry_equiv_pos_as_xyz
  1  'x, y, z'
loop_
 _atom_site_type_symbol
 _atom_site_label
 _atom_site_symmetry_multiplicity
 _atom_site_fract_x
 _atom_site_fract_y
 _atom_site_fract_z
 _atom_site_occupancy
  Pd  Pd0  1  0.03841487  0.00300226  0.07682973  1
  Pd  Pd1  1  0.96158513  0.50300226  0.92317027  1
  Pd  Pd2  1  0.82503506  0.10618652  0.65007012  1
  Pd  Pd3  1  0.17496494  0.60618652  0.34992988  1
  Pd  Pd4  1  0.66979094  0.95355787  0.33958188  1
  Pd  Pd5  1  0.33020906  0.45355787  0.66041812  1
  Pd  Pd6  1  0.41304387  0.82619007  0.82608775  1
  Pd  Pd7  1  0.58695613  0.32619007  0.17391225  1
  Sb  Sb8  1  0.44307061  0.19713070  0.88614123  1
  Sb  Sb9  1  0.55692939  0.69713070  0.11385877  1
  Sb  Sb10  1  0.79428608  0.72823258  0.58857217  1
  Sb  Sb11  1  0.20571392  0.22823258  0.41142783  1
