# generated using pymatgen
data_NiF2
_symmetry_space_group_name_H-M   'P 1'
_cell_length_a   3.11815289
_cell_length_b   4.64407633
_cell_length_c   4.74356529
_cell_angle_alpha   90.00000000
_cell_angle_beta   90.00000000
_cell_angle_gamma   90.00000000
_symmetry_Int_Tables_number   1
_chemical_formula_structural   NiF2
_chemical_formula_sum   'Ni2 F4'
_cell_volume   68.69128449
_cell_formula_units_Z   2
loop_
 _symmetry_equiv_pos_site_id
 _symmetry_equiv_pos_as_xyz
  1  'x, y, z'
loop_
 _atom_site_type_symbol
 _atom_site_label
 _atom_site_symmetry_multiplicity
 _atom_site_fract_x
 _atom_site_fract_y
 _atom_site_fract_z
 _atom_site_occupancy
  Ni  Ni0  1  0.00000000  0.00000000  0.00000000  1
  Ni  Ni1  1  0.50000000  0.50000000  0.50000000  1
  F  F2  1  0.00000000  0.28800680  0.31989381  1
  F  F3  1  0.50000000  0.21199320  0.81989381  1
  F  F4  1  0.00000000  0.71199320  0.68010619  1
  F  F5  1  0.50000000  0.78800680  0.18010619  1
