# generated using pymatgen
data_Sc3RhC4
_symmetry_space_group_name_H-M   'P 1'
_cell_length_a   5.62863617
_cell_length_b   5.62866066
_cell_length_c   6.77317271
_cell_angle_alpha   83.53610594
_cell_angle_beta   65.44858279
_cell_angle_gamma   74.27995244
_symmetry_Int_Tables_number   1
_chemical_formula_structural   Sc3RhC4
_chemical_formula_sum   'Sc6 Rh2 C8'
_cell_volume   187.88408112
_cell_formula_units_Z   2
loop_
 _symmetry_equiv_pos_site_id
 _symmetry_equiv_pos_as_xyz
  1  'x, y, z'
loop_
 _atom_site_type_symbol
 _atom_site_label
 _atom_site_symmetry_multiplicity
 _atom_site_fract_x
 _atom_site_fract_y
 _atom_site_fract_z
 _atom_site_occupancy
  Sc  Sc0  1  0.75910902  0.75971318  0.00000000  1
  Sc  Sc1  1  0.18845359  0.00000000  0.62309282  1
  Sc  Sc2  1  0.68979838  0.50000000  0.62040325  1
  Sc  Sc3  1  0.24089098  0.24028682  1.00000000  1
  Sc  Sc4  1  0.31020162  0.50000000  0.37959675  1
  Sc  Sc5  1  0.81154641  1.00000000  0.37690718  1
  Rh  Rh6  1  0.26884530  0.73089567  0.00000000  1
  Rh  Rh7  1  0.73115470  0.26910433  1.00000000  1
  C  C8  1  0.94981239  0.58181266  0.25701775  1
  C  C9  1  0.71063987  0.07822976  0.74186593  1
  C  C10  1  0.79316986  0.41818734  0.25701775  1
  C  C11  1  0.05018761  0.41818734  0.74298225  1
  C  C12  1  0.28936013  0.92177024  0.25813407  1
  C  C13  1  0.54749419  0.92177024  0.74186593  1
  C  C14  1  0.45250581  0.07822976  0.25813407  1
  C  C15  1  0.20683014  0.58181266  0.74298225  1
