# generated using pymatgen
data_ZrCuF6
_symmetry_space_group_name_H-M   'P 1'
_cell_length_a   5.75946932
_cell_length_b   5.58582588
_cell_length_c   5.59100161
_cell_angle_alpha   90.52383426
_cell_angle_beta   118.68867375
_cell_angle_gamma   119.71276110
_symmetry_Int_Tables_number   1
_chemical_formula_structural   ZrCuF6
_chemical_formula_sum   'Zr1 Cu1 F6'
_cell_volume   129.63728740
_cell_formula_units_Z   1
loop_
 _symmetry_equiv_pos_site_id
 _symmetry_equiv_pos_as_xyz
  1  'x, y, z'
loop_
 _atom_site_type_symbol
 _atom_site_label
 _atom_site_symmetry_multiplicity
 _atom_site_fract_x
 _atom_site_fract_y
 _atom_site_fract_z
 _atom_site_occupancy
  Zr  Zr0  1  0.00000000  0.50000000  0.50000000  1
  Cu  Cu1  1  0.00000000  0.00000000  0.00000000  1
  F  F2  1  0.98799520  0.20054896  0.71217914  1
  F  F3  1  0.51971431  0.22508623  0.21549770  1
  F  F4  1  0.01200480  0.79945104  0.28782086  1
  F  F5  1  0.48028569  0.77491377  0.78450230  1
  F  F6  1  0.07816310  0.32022868  0.24821117  1
  F  F7  1  0.92183690  0.67977132  0.75178883  1
