# generated using pymatgen
data_CuAsS
_symmetry_space_group_name_H-M   'P 1'
_cell_length_a   3.82419825
_cell_length_b   5.46621656
_cell_length_c   11.40406706
_cell_angle_alpha   90.00000000
_cell_angle_beta   90.00000000
_cell_angle_gamma   90.00000000
_symmetry_Int_Tables_number   1
_chemical_formula_structural   CuAsS
_chemical_formula_sum   'Cu4 As4 S4'
_cell_volume   238.38942955
_cell_formula_units_Z   4
loop_
 _symmetry_equiv_pos_site_id
 _symmetry_equiv_pos_as_xyz
  1  'x, y, z'
loop_
 _atom_site_type_symbol
 _atom_site_label
 _atom_site_symmetry_multiplicity
 _atom_site_fract_x
 _atom_site_fract_y
 _atom_site_fract_z
 _atom_site_occupancy
  Cu  Cu0  1  0.27945244  0.43802417  0.32518303  1
  Cu  Cu1  1  0.77945244  0.93802417  0.17481697  1
  Cu  Cu2  1  0.77945244  0.56197583  0.67481697  1
  Cu  Cu3  1  0.27945244  0.06197583  0.82518303  1
  As  As4  1  0.77958678  0.65164994  0.01375189  1
  As  As5  1  0.27958678  0.15164994  0.48624811  1
  As  As6  1  0.77958678  0.84835006  0.51375189  1
  As  As7  1  0.27958678  0.34835006  0.98624811  1
  S  S8  1  0.77954078  0.82822854  0.83094310  1
  S  S9  1  0.77954078  0.67177146  0.33094310  1
  S  S10  1  0.27954078  0.17177146  0.16905690  1
  S  S11  1  0.27954078  0.32822854  0.66905690  1
