# generated using pymatgen
data_V2NiSe4
_symmetry_space_group_name_H-M   'P 1'
_cell_length_a   3.58475013
_cell_length_b   3.57333215
_cell_length_c   11.91013550
_cell_angle_alpha   88.82408718
_cell_angle_beta   90.00000000
_cell_angle_gamma   120.10575698
_symmetry_Int_Tables_number   1
_chemical_formula_structural   V2NiSe4
_chemical_formula_sum   'V2 Ni1 Se4'
_cell_volume   131.94519315
_cell_formula_units_Z   1
loop_
 _symmetry_equiv_pos_site_id
 _symmetry_equiv_pos_as_xyz
  1  'x, y, z'
loop_
 _atom_site_type_symbol
 _atom_site_label
 _atom_site_symmetry_multiplicity
 _atom_site_fract_x
 _atom_site_fract_y
 _atom_site_fract_z
 _atom_site_occupancy
  V  V0  1  0.98872143  0.97744286  0.24770722  1
  V  V1  1  0.01127857  0.02255714  0.75229278  1
  Ni  Ni2  1  0.00000000  0.00000000  0.00000000  1
  Se  Se3  1  0.66056456  0.32112911  0.11584006  1
  Se  Se4  1  0.33943544  0.67887089  0.88415994  1
  Se  Se5  1  0.31621082  0.63242164  0.36739032  1
  Se  Se6  1  0.68378918  0.36757836  0.63260968  1
