# generated using pymatgen
data_Ni3Se4
_symmetry_space_group_name_H-M   'P 1'
_cell_length_a   3.67400579
_cell_length_b   6.19680142
_cell_length_c   6.31849653
_cell_angle_alpha   120.12290346
_cell_angle_beta   106.90191523
_cell_angle_gamma   90.00000007
_symmetry_Int_Tables_number   1
_chemical_formula_structural   Ni3Se4
_chemical_formula_sum   'Ni3 Se4'
_cell_volume   117.18683481
_cell_formula_units_Z   1
loop_
 _symmetry_equiv_pos_site_id
 _symmetry_equiv_pos_as_xyz
  1  'x, y, z'
loop_
 _atom_site_type_symbol
 _atom_site_label
 _atom_site_symmetry_multiplicity
 _atom_site_fract_x
 _atom_site_fract_y
 _atom_site_fract_z
 _atom_site_occupancy
  Ni  Ni0  1  0.00000000  0.00000000  0.00000000  1
  Ni  Ni1  1  0.25986481  0.24055407  0.51972962  1
  Ni  Ni2  1  0.74013519  0.75944593  0.48027038  1
  Se  Se3  1  0.11836863  0.77887615  0.23673727  1
  Se  Se4  1  0.88163137  0.22112385  0.76326273  1
  Se  Se5  1  0.63551187  0.29381427  0.27102374  1
  Se  Se6  1  0.36448813  0.70618573  0.72897626  1
