# generated using pymatgen
data_SrZrS3
_symmetry_space_group_name_H-M   'P 1'
_cell_length_a   6.79215614
_cell_length_b   7.18420317
_cell_length_c   9.84614163
_cell_angle_alpha   90.00000000
_cell_angle_beta   90.00000000
_cell_angle_gamma   90.00000000
_symmetry_Int_Tables_number   1
_chemical_formula_structural   SrZrS3
_chemical_formula_sum   'Sr4 Zr4 S12'
_cell_volume   480.45458836
_cell_formula_units_Z   4
loop_
 _symmetry_equiv_pos_site_id
 _symmetry_equiv_pos_as_xyz
  1  'x, y, z'
loop_
 _atom_site_type_symbol
 _atom_site_label
 _atom_site_symmetry_multiplicity
 _atom_site_fract_x
 _atom_site_fract_y
 _atom_site_fract_z
 _atom_site_occupancy
  S  S0  1  0.40172273  0.51988473  0.75000000  1
  S  S1  1  0.90172273  0.98011527  0.25000000  1
  S  S2  1  0.09827727  0.01988473  0.75000000  1
  S  S3  1  0.59827727  0.48011527  0.25000000  1
  S  S4  1  0.19229276  0.30321857  0.05052273  1
  S  S5  1  0.69229276  0.19678143  0.94947727  1
  S  S6  1  0.30770724  0.80321857  0.44947727  1
  S  S7  1  0.80770724  0.69678143  0.55052273  1
  S  S8  1  0.19229276  0.30321857  0.44947727  1
  S  S9  1  0.69229276  0.19678143  0.55052273  1
  S  S10  1  0.30770724  0.80321857  0.05052273  1
  S  S11  1  0.80770724  0.69678143  0.94947727  1
  Sr  Sr12  1  0.47501117  0.08012995  0.25000000  1
  Sr  Sr13  1  0.97501117  0.41987005  0.75000000  1
  Sr  Sr14  1  0.02498883  0.58012995  0.25000000  1
  Sr  Sr15  1  0.52498883  0.91987005  0.75000000  1
  Zr  Zr16  1  0.00000000  0.00000000  0.00000000  1
  Zr  Zr17  1  0.50000000  0.50000000  0.00000000  1
  Zr  Zr18  1  0.50000000  0.50000000  0.50000000  1
  Zr  Zr19  1  0.00000000  0.00000000  0.50000000  1
