# generated using pymatgen
data_Al4Cu9
_symmetry_space_group_name_H-M   'P 1'
_cell_length_a   8.70146223
_cell_length_b   8.70146223
_cell_length_c   8.70146223
_cell_angle_alpha   90.00000000
_cell_angle_beta   90.00000000
_cell_angle_gamma   90.00000000
_symmetry_Int_Tables_number   1
_chemical_formula_structural   Al4Cu9
_chemical_formula_sum   'Al16 Cu36'
_cell_volume   658.83508437
_cell_formula_units_Z   4
loop_
 _symmetry_equiv_pos_site_id
 _symmetry_equiv_pos_as_xyz
  1  'x, y, z'
loop_
 _atom_site_type_symbol
 _atom_site_label
 _atom_site_symmetry_multiplicity
 _atom_site_fract_x
 _atom_site_fract_y
 _atom_site_fract_z
 _atom_site_occupancy
  Al  Al0  1  0.12118795  0.12118795  0.12118795  1
  Al  Al1  1  0.87881205  0.12118795  0.87881205  1
  Al  Al2  1  0.87881205  0.87881205  0.12118795  1
  Al  Al3  1  0.12118795  0.87881205  0.87881205  1
  Al  Al4  1  0.80980359  0.46579121  0.19019641  1
  Al  Al5  1  0.46579121  0.80980359  0.19019641  1
  Al  Al6  1  0.80980359  0.53420879  0.80980359  1
  Al  Al7  1  0.53420879  0.80980359  0.80980359  1
  Al  Al8  1  0.19019641  0.80980359  0.46579121  1
  Al  Al9  1  0.80980359  0.19019641  0.46579121  1
  Al  Al10  1  0.53420879  0.19019641  0.19019641  1
  Al  Al11  1  0.46579121  0.19019641  0.80980359  1
  Al  Al12  1  0.19019641  0.46579121  0.80980359  1
  Al  Al13  1  0.19019641  0.53420879  0.19019641  1
  Al  Al14  1  0.80980359  0.80980359  0.53420879  1
  Al  Al15  1  0.19019641  0.19019641  0.53420879  1
  Cu  Cu16  1  0.32526797  0.67473203  0.67473203  1
  Cu  Cu17  1  0.64427044  0.00000000  0.00000000  1
  Cu  Cu18  1  0.00000000  0.00000000  0.35572956  1
  Cu  Cu19  1  0.00000000  0.00000000  0.64427044  1
  Cu  Cu20  1  0.00000000  0.64427044  0.00000000  1
  Cu  Cu21  1  0.00000000  0.35572956  0.00000000  1
  Cu  Cu22  1  0.85502122  0.50000000  0.50000000  1
  Cu  Cu23  1  0.14497878  0.50000000  0.50000000  1
  Cu  Cu24  1  0.50000000  0.50000000  0.85502122  1
  Cu  Cu25  1  0.50000000  0.50000000  0.14497878  1
  Cu  Cu26  1  0.35572956  0.00000000  0.00000000  1
  Cu  Cu27  1  0.50000000  0.85502122  0.50000000  1
  Cu  Cu28  1  0.31633129  0.31633129  0.03015341  1
  Cu  Cu29  1  0.68366871  0.03015341  0.68366871  1
  Cu  Cu30  1  0.68366871  0.96984659  0.31633129  1
  Cu  Cu31  1  0.96984659  0.68366871  0.31633129  1
  Cu  Cu32  1  0.03015341  0.68366871  0.68366871  1
  Cu  Cu33  1  0.31633129  0.68366871  0.96984659  1
  Cu  Cu34  1  0.68366871  0.31633129  0.96984659  1
  Cu  Cu35  1  0.03015341  0.31633129  0.31633129  1
  Cu  Cu36  1  0.31633129  0.03015341  0.31633129  1
  Cu  Cu37  1  0.96984659  0.31633129  0.68366871  1
  Cu  Cu38  1  0.31633129  0.96984659  0.68366871  1
  Cu  Cu39  1  0.68366871  0.68366871  0.03015341  1
  Cu  Cu40  1  0.67473203  0.67473203  0.32526797  1
  Cu  Cu41  1  0.67473203  0.32526797  0.67473203  1
  Cu  Cu42  1  0.32526797  0.32526797  0.32526797  1
  Cu  Cu43  1  0.83067018  0.16932982  0.16932982  1
  Cu  Cu44  1  0.16932982  0.16932982  0.83067018  1
  Cu  Cu45  1  0.16932982  0.83067018  0.16932982  1
  Cu  Cu46  1  0.83067018  0.83067018  0.83067018  1
  Cu  Cu47  1  0.60608183  0.39391817  0.39391817  1
  Cu  Cu48  1  0.39391817  0.39391817  0.60608183  1
  Cu  Cu49  1  0.39391817  0.60608183  0.39391817  1
  Cu  Cu50  1  0.60608183  0.60608183  0.60608183  1
  Cu  Cu51  1  0.50000000  0.14497878  0.50000000  1
