# generated using pymatgen
data_Y(SiOs)2
_symmetry_space_group_name_H-M   'P 1'
_cell_length_a   4.19248821
_cell_length_b   4.19248882
_cell_length_c   5.66332690
_cell_angle_alpha   111.72448495
_cell_angle_beta   111.72448516
_cell_angle_gamma   89.99999352
_symmetry_Int_Tables_number   1
_chemical_formula_structural   Y(SiOs)2
_chemical_formula_sum   'Y1 Si2 Os2'
_cell_volume   84.81640742
_cell_formula_units_Z   1
loop_
 _symmetry_equiv_pos_site_id
 _symmetry_equiv_pos_as_xyz
  1  'x, y, z'
loop_
 _atom_site_type_symbol
 _atom_site_label
 _atom_site_symmetry_multiplicity
 _atom_site_fract_x
 _atom_site_fract_y
 _atom_site_fract_z
 _atom_site_occupancy
  Y  Y0  1  0.00000000  0.00000000  0.00000000  1
  Si  Si1  1  0.37091008  0.37091008  0.74182116  1
  Si  Si2  1  0.62908992  0.62908992  0.25817884  1
  Os  Os3  1  0.75000000  0.25000000  0.50000000  1
  Os  Os4  1  0.25000000  0.75000000  0.50000000  1
