# generated using pymatgen
data_Be12W
_symmetry_space_group_name_H-M   'P 1'
_cell_length_a   4.19607809
_cell_length_b   5.51341051
_cell_length_c   5.51340996
_cell_angle_alpha   81.67395809
_cell_angle_beta   67.63325349
_cell_angle_gamma   67.63324873
_symmetry_Int_Tables_number   1
_chemical_formula_structural   Be12W
_chemical_formula_sum   'Be12 W1'
_cell_volume   109.08093514
_cell_formula_units_Z   1
loop_
 _symmetry_equiv_pos_site_id
 _symmetry_equiv_pos_as_xyz
  1  'x, y, z'
loop_
 _atom_site_type_symbol
 _atom_site_label
 _atom_site_symmetry_multiplicity
 _atom_site_fract_x
 _atom_site_fract_y
 _atom_site_fract_z
 _atom_site_occupancy
  Be  Be0  1  1.00000000  0.64916869  0.35083131  1
  Be  Be1  1  0.00000000  0.50000000  0.00000000  1
  Be  Be2  1  0.64916869  0.35083131  0.35083131  1
  Be  Be3  1  0.50000000  0.21081177  0.78918823  1
  Be  Be4  1  0.00000000  0.35083131  0.64916869  1
  Be  Be5  1  0.50000000  0.00000000  0.50000000  1
  Be  Be6  1  0.35083131  0.64916869  0.64916869  1
  Be  Be7  1  0.28918823  0.21081177  0.21081177  1
  Be  Be8  1  0.50000000  0.78918823  0.21081177  1
  Be  Be9  1  0.00000000  0.00000000  0.50000000  1
  Be  Be10  1  0.71081177  0.78918823  0.78918823  1
  Be  Be11  1  0.50000000  0.50000000  0.00000000  1
  W  W12  1  0.00000000  0.00000000  0.00000000  1
