# generated using pymatgen
data_TiSe
_symmetry_space_group_name_H-M   'P 1'
_cell_length_a   3.48083036
_cell_length_b   6.25647442
_cell_length_c   6.48765472
_cell_angle_alpha   90.00000000
_cell_angle_beta   90.00000000
_cell_angle_gamma   90.00000000
_symmetry_Int_Tables_number   1
_chemical_formula_structural   TiSe
_chemical_formula_sum   'Ti4 Se4'
_cell_volume   141.28636757
_cell_formula_units_Z   4
loop_
 _symmetry_equiv_pos_site_id
 _symmetry_equiv_pos_as_xyz
  1  'x, y, z'
loop_
 _atom_site_type_symbol
 _atom_site_label
 _atom_site_symmetry_multiplicity
 _atom_site_fract_x
 _atom_site_fract_y
 _atom_site_fract_z
 _atom_site_occupancy
  Ti  Ti0  1  0.25000000  0.69401817  0.50645460  1
  Ti  Ti1  1  0.25000000  0.80598183  0.00645460  1
  Ti  Ti2  1  0.75000000  0.30598183  0.49354540  1
  Ti  Ti3  1  0.75000000  0.19401817  0.99354540  1
  Se  Se4  1  0.75000000  0.92017778  0.28374433  1
  Se  Se5  1  0.25000000  0.07982222  0.71625567  1
  Se  Se6  1  0.25000000  0.42017778  0.21625567  1
  Se  Se7  1  0.75000000  0.57982222  0.78374433  1
