# generated using pymatgen
data_CrCuO2
_symmetry_space_group_name_H-M   'P 1'
_cell_length_a   3.04850832
_cell_length_b   3.04850804
_cell_length_c   11.44912248
_cell_angle_alpha   90.00000000
_cell_angle_beta   90.00000000
_cell_angle_gamma   119.99999178
_symmetry_Int_Tables_number   1
_chemical_formula_structural   CrCuO2
_chemical_formula_sum   'Cr2 Cu2 O4'
_cell_volume   92.14623571
_cell_formula_units_Z   2
loop_
 _symmetry_equiv_pos_site_id
 _symmetry_equiv_pos_as_xyz
  1  'x, y, z'
loop_
 _atom_site_type_symbol
 _atom_site_label
 _atom_site_symmetry_multiplicity
 _atom_site_fract_x
 _atom_site_fract_y
 _atom_site_fract_z
 _atom_site_occupancy
  O  O0  1  0.33333300  0.66666600  0.41182945  1
  O  O1  1  0.66666600  0.33333300  0.91182945  1
  O  O2  1  0.66666600  0.33333300  0.58817155  1
  O  O3  1  0.33333300  0.66666600  0.08817055  1
  Cr  Cr4  1  0.00000000  0.00000000  0.50000000  1
  Cr  Cr5  1  0.00000000  0.00000000  0.00000000  1
  Cu  Cu6  1  0.66666600  0.33333300  0.75000000  1
  Cu  Cu7  1  0.33333300  0.66666600  0.25000000  1
