# generated using pymatgen
data_HfAlPt
_symmetry_space_group_name_H-M   'P 1'
_cell_length_a   7.15750923
_cell_length_b   7.15750891
_cell_length_c   7.14674994
_cell_angle_alpha   90.00000000
_cell_angle_beta   90.00000000
_cell_angle_gamma   120.00000141
_symmetry_Int_Tables_number   1
_chemical_formula_structural   HfAlPt
_chemical_formula_sum   'Hf6 Al6 Pt6'
_cell_volume   317.07574868
_cell_formula_units_Z   6
loop_
 _symmetry_equiv_pos_site_id
 _symmetry_equiv_pos_as_xyz
  1  'x, y, z'
loop_
 _atom_site_type_symbol
 _atom_site_label
 _atom_site_symmetry_multiplicity
 _atom_site_fract_x
 _atom_site_fract_y
 _atom_site_fract_z
 _atom_site_occupancy
  Hf  Hf0  1  0.41159242  0.39129571  0.25000000  1
  Hf  Hf1  1  0.39129571  0.41159242  0.75000000  1
  Hf  Hf2  1  0.60870429  0.02029671  0.25000000  1
  Hf  Hf3  1  0.02029671  0.60870429  0.75000000  1
  Hf  Hf4  1  0.58840758  0.97970329  0.75000000  1
  Hf  Hf5  1  0.97970329  0.58840758  0.25000000  1
  Al  Al6  1  1.00000000  0.26111036  0.00000000  1
  Al  Al7  1  0.26111036  0.00000000  0.50000000  1
  Al  Al8  1  0.26111036  0.00000000  0.00000000  1
  Al  Al9  1  1.00000000  0.26111036  0.50000000  1
  Al  Al10  1  0.73888964  0.73888964  0.00000000  1
  Al  Al11  1  0.73888964  0.73888964  0.50000000  1
  Pt  Pt12  1  0.33333300  0.66666700  0.47246690  1
  Pt  Pt13  1  0.66666700  0.33333300  0.52753310  1
  Pt  Pt14  1  0.00000000  0.00000000  0.25000000  1
  Pt  Pt15  1  0.66666700  0.33333300  0.97246690  1
  Pt  Pt16  1  0.33333300  0.66666700  0.02753310  1
  Pt  Pt17  1  0.00000000  0.00000000  0.75000000  1
