# generated using pymatgen
data_Li15Au4
_symmetry_space_group_name_H-M   'P 1'
_cell_length_a   9.37532544
_cell_length_b   9.37532620
_cell_length_c   9.37532559
_cell_angle_alpha   109.47122146
_cell_angle_beta   109.47122309
_cell_angle_gamma   109.47121960
_symmetry_Int_Tables_number   1
_chemical_formula_structural   Li15Au4
_chemical_formula_sum   'Li30 Au8'
_cell_volume   634.36205240
_cell_formula_units_Z   2
loop_
 _symmetry_equiv_pos_site_id
 _symmetry_equiv_pos_as_xyz
  1  'x, y, z'
loop_
 _atom_site_type_symbol
 _atom_site_label
 _atom_site_symmetry_multiplicity
 _atom_site_fract_x
 _atom_site_fract_y
 _atom_site_fract_z
 _atom_site_occupancy
  Li  Li0  1  0.96024526  0.37997395  0.65644197  1
  Li  Li1  1  0.69619671  0.03975474  0.91972869  1
  Li  Li2  1  0.91972869  0.69619671  0.03975474  1
  Li  Li3  1  0.12500000  0.75000000  0.87500000  1
  Li  Li4  1  0.87997395  0.46024526  0.15644197  1
  Li  Li5  1  0.27646801  0.12002605  0.08027131  1
  Li  Li6  1  0.19619671  0.41972869  0.53975474  1
  Li  Li7  1  0.77646801  0.58027131  0.62002605  1
  Li  Li8  1  0.62002605  0.77646801  0.58027131  1
  Li  Li9  1  0.41972869  0.53975474  0.19619671  1
  Li  Li10  1  0.80380329  0.72353199  0.34355803  1
  Li  Li11  1  0.46024526  0.15644197  0.87997395  1
  Li  Li12  1  0.30380329  0.84355803  0.22353199  1
  Li  Li13  1  0.12002605  0.08027131  0.27646801  1
  Li  Li14  1  0.53975474  0.19619671  0.41972869  1
  Li  Li15  1  0.62500000  0.37500000  0.25000000  1
  Li  Li16  1  0.65644197  0.96024526  0.37997395  1
  Li  Li17  1  0.87500000  0.12500000  0.75000000  1
  Li  Li18  1  0.58027131  0.62002605  0.77646801  1
  Li  Li19  1  0.37997395  0.65644197  0.96024526  1
  Li  Li20  1  0.72353199  0.34355803  0.80380329  1
  Li  Li21  1  0.08027131  0.27646801  0.12002605  1
  Li  Li22  1  0.34355803  0.80380329  0.72353199  1
  Li  Li23  1  0.84355803  0.22353199  0.30380329  1
  Li  Li24  1  0.03975474  0.91972869  0.69619671  1
  Li  Li25  1  0.15644197  0.87997395  0.46024526  1
  Li  Li26  1  0.75000000  0.87500000  0.12500000  1
  Li  Li27  1  0.22353199  0.30380329  0.84355803  1
  Li  Li28  1  0.37500000  0.25000000  0.62500000  1
  Li  Li29  1  0.25000000  0.62500000  0.37500000  1
  Au  Au30  1  0.50000000  0.00000000  0.08677365  1
  Au  Au31  1  0.91322635  0.91322635  0.91322635  1
  Au  Au32  1  0.41322635  0.41322635  0.41322635  1
  Au  Au33  1  1.00000000  0.08677365  0.50000000  1
  Au  Au34  1  0.08677365  0.50000000  0.00000000  1
  Au  Au35  1  0.58677365  0.50000000  0.00000000  1
  Au  Au36  1  0.50000000  0.00000000  0.58677365  1
  Au  Au37  1  1.00000000  0.58677365  0.50000000  1
