# generated using pymatgen
data_Mg3Rh
_symmetry_space_group_name_H-M   'P 1'
_cell_length_a   7.96743404
_cell_length_b   7.96743420
_cell_length_c   8.23975388
_cell_angle_alpha   90.00000000
_cell_angle_beta   90.00000000
_cell_angle_gamma   119.99999932
_symmetry_Int_Tables_number   1
_chemical_formula_structural   Mg3Rh
_chemical_formula_sum   'Mg18 Rh6'
_cell_volume   452.98293011
_cell_formula_units_Z   6
loop_
 _symmetry_equiv_pos_site_id
 _symmetry_equiv_pos_as_xyz
  1  'x, y, z'
loop_
 _atom_site_type_symbol
 _atom_site_label
 _atom_site_symmetry_multiplicity
 _atom_site_fract_x
 _atom_site_fract_y
 _atom_site_fract_z
 _atom_site_occupancy
  Rh  Rh0  1  0.32777733  0.32777733  0.24769940  1
  Rh  Rh1  1  0.00000000  0.32777733  0.74769940  1
  Rh  Rh2  1  0.32777733  0.00000000  0.74769940  1
  Rh  Rh3  1  0.67222267  0.00000000  0.24769940  1
  Rh  Rh4  1  0.00000000  0.67222267  0.24769940  1
  Rh  Rh5  1  0.67222267  0.67222267  0.74769940  1
  Mg  Mg6  1  0.00000000  0.00000000  0.31362484  1
  Mg  Mg7  1  0.00000000  0.00000000  0.81362484  1
  Mg  Mg8  1  0.33333300  0.66666700  0.20444595  1
  Mg  Mg9  1  0.66666700  0.33333300  0.70444595  1
  Mg  Mg10  1  0.33333300  0.66666700  0.70444595  1
  Mg  Mg11  1  0.66666700  0.33333300  0.20444595  1
  Mg  Mg12  1  0.28603327  0.28603327  0.57678886  1
  Mg  Mg13  1  1.00000000  0.28603327  0.07678886  1
  Mg  Mg14  1  0.28603327  0.00000000  0.07678886  1
  Mg  Mg15  1  0.71396673  0.00000000  0.57678886  1
  Mg  Mg16  1  0.00000000  0.71396673  0.57678886  1
  Mg  Mg17  1  0.71396673  0.71396673  0.07678886  1
  Mg  Mg18  1  0.62668955  0.62668955  0.41950616  1
  Mg  Mg19  1  0.00000000  0.62668955  0.91950616  1
  Mg  Mg20  1  0.62668955  0.00000000  0.91950616  1
  Mg  Mg21  1  0.37331045  0.00000000  0.41950616  1
  Mg  Mg22  1  1.00000000  0.37331045  0.41950616  1
  Mg  Mg23  1  0.37331045  0.37331045  0.91950616  1
