# generated using pymatgen
data_TiO2
_symmetry_space_group_name_H-M   'P 1'
_cell_length_a   3.76693666
_cell_length_b   6.43536812
_cell_length_c   6.61621258
_cell_angle_alpha   106.18218430
_cell_angle_beta   90.00000000
_cell_angle_gamma   107.01814417
_symmetry_Int_Tables_number   1
_chemical_formula_structural   TiO2
_chemical_formula_sum   'Ti4 O8'
_cell_volume   146.70631565
_cell_formula_units_Z   4
loop_
 _symmetry_equiv_pos_site_id
 _symmetry_equiv_pos_as_xyz
  1  'x, y, z'
loop_
 _atom_site_type_symbol
 _atom_site_label
 _atom_site_symmetry_multiplicity
 _atom_site_fract_x
 _atom_site_fract_y
 _atom_site_fract_z
 _atom_site_occupancy
  Ti  Ti0  1  0.19528650  0.39057299  0.28376218  1
  Ti  Ti1  1  0.90007140  0.80014280  0.28960187  1
  Ti  Ti2  1  0.80471350  0.60942701  0.71623782  1
  Ti  Ti3  1  0.09992860  0.19985720  0.71039813  1
  O  O4  1  0.94164788  0.88329576  0.63002144  1
  O  O5  1  0.36193151  0.72386302  0.29339728  1
  O  O6  1  0.86718881  0.73437762  0.99529135  1
  O  O7  1  0.05835212  0.11670424  0.36997856  1
  O  O8  1  0.26348896  0.52697792  0.65250005  1
  O  O9  1  0.13281119  0.26562238  0.00470865  1
  O  O10  1  0.73651104  0.47302208  0.34749995  1
  O  O11  1  0.63806849  0.27613698  0.70660272  1
