# generated using pymatgen
data_FeAsS
_symmetry_space_group_name_H-M   'P 1'
_cell_length_a   5.67173578
_cell_length_b   5.73963808
_cell_length_c   5.76262332
_cell_angle_alpha   112.07751055
_cell_angle_beta   90.00000000
_cell_angle_gamma   90.00000000
_symmetry_Int_Tables_number   1
_chemical_formula_structural   FeAsS
_chemical_formula_sum   'Fe4 As4 S4'
_cell_volume   173.83961685
_cell_formula_units_Z   4
loop_
 _symmetry_equiv_pos_site_id
 _symmetry_equiv_pos_as_xyz
  1  'x, y, z'
loop_
 _atom_site_type_symbol
 _atom_site_label
 _atom_site_symmetry_multiplicity
 _atom_site_fract_x
 _atom_site_fract_y
 _atom_site_fract_z
 _atom_site_occupancy
  Fe  Fe0  1  0.49117306  0.71183690  0.20309809  1
  Fe  Fe1  1  0.99117306  0.28816310  0.29690191  1
  Fe  Fe2  1  0.50882694  0.28816310  0.79690191  1
  Fe  Fe3  1  0.00882694  0.71183690  0.70309809  1
  As  As4  1  0.63164894  0.85377944  0.62868863  1
  As  As5  1  0.13164894  0.14622056  0.87131137  1
  As  As6  1  0.36835106  0.14622056  0.37131137  1
  As  As7  1  0.86835106  0.85377944  0.12868863  1
  S  S8  1  0.63297878  0.34793156  0.17673390  1
  S  S9  1  0.13297878  0.65206844  0.32326610  1
  S  S10  1  0.36702122  0.65206844  0.82326610  1
  S  S11  1  0.86702122  0.34793156  0.67673390  1
