# generated using pymatgen
data_ZrTe
_symmetry_space_group_name_H-M   'P 1'
_cell_length_a   3.80397777
_cell_length_b   7.00967607
_cell_length_c   7.45095855
_cell_angle_alpha   90.00000000
_cell_angle_beta   90.00000000
_cell_angle_gamma   90.00000000
_symmetry_Int_Tables_number   1
_chemical_formula_structural   ZrTe
_chemical_formula_sum   'Zr4 Te4'
_cell_volume   198.67721639
_cell_formula_units_Z   4
loop_
 _symmetry_equiv_pos_site_id
 _symmetry_equiv_pos_as_xyz
  1  'x, y, z'
loop_
 _atom_site_type_symbol
 _atom_site_label
 _atom_site_symmetry_multiplicity
 _atom_site_fract_x
 _atom_site_fract_y
 _atom_site_fract_z
 _atom_site_occupancy
  Zr  Zr0  1  0.75000000  0.31085400  0.99173780  1
  Zr  Zr1  1  0.75000000  0.18914600  0.49173780  1
  Zr  Zr2  1  0.25000000  0.68914600  0.00826220  1
  Zr  Zr3  1  0.25000000  0.81085400  0.50826220  1
  Te  Te4  1  0.25000000  0.42670368  0.70902729  1
  Te  Te5  1  0.75000000  0.57329632  0.29097271  1
  Te  Te6  1  0.25000000  0.07329632  0.20902729  1
  Te  Te7  1  0.75000000  0.92670368  0.79097271  1
