# generated using pymatgen
data_CuMoO4
_symmetry_space_group_name_H-M   'P 1'
_cell_length_a   4.81039965
_cell_length_b   4.95134185
_cell_length_c   6.04119350
_cell_angle_alpha   86.97467110
_cell_angle_beta   79.77029624
_cell_angle_gamma   85.61749364
_symmetry_Int_Tables_number   1
_chemical_formula_structural   CuMoO4
_chemical_formula_sum   'Cu2 Mo2 O8'
_cell_volume   141.07466472
_cell_formula_units_Z   2
loop_
 _symmetry_equiv_pos_site_id
 _symmetry_equiv_pos_as_xyz
  1  'x, y, z'
loop_
 _atom_site_type_symbol
 _atom_site_label
 _atom_site_symmetry_multiplicity
 _atom_site_fract_x
 _atom_site_fract_y
 _atom_site_fract_z
 _atom_site_occupancy
  Cu  Cu0  1  0.49014855  0.74619992  0.15506788  1
  Cu  Cu1  1  0.50985145  0.25380008  0.84493212  1
  Mo  Mo2  1  0.97138648  0.25689086  0.32897760  1
  Mo  Mo3  1  0.02861352  0.74310914  0.67102240  1
  O  O4  1  0.72622709  0.90428623  0.87999926  1
  O  O5  1  0.78878953  0.42766751  0.62338605  1
  O  O6  1  0.75357642  0.43441163  0.14891587  1
  O  O7  1  0.24642358  0.56558837  0.85108413  1
  O  O8  1  0.21764820  0.04341097  0.58607310  1
  O  O9  1  0.78235180  0.95658903  0.41392690  1
  O  O10  1  0.21121047  0.57233249  0.37661395  1
  O  O11  1  0.27377291  0.09571377  0.12000074  1
