# generated using pymatgen
data_Nb2CoO6
_symmetry_space_group_name_H-M   'P 1'
_cell_length_a   5.09799879
_cell_length_b   5.83211382
_cell_length_c   14.33002582
_cell_angle_alpha   90.00000000
_cell_angle_beta   90.00000000
_cell_angle_gamma   90.00000000
_symmetry_Int_Tables_number   1
_chemical_formula_structural   Nb2CoO6
_chemical_formula_sum   'Nb8 Co4 O24'
_cell_volume   426.06189248
_cell_formula_units_Z   4
loop_
 _symmetry_equiv_pos_site_id
 _symmetry_equiv_pos_as_xyz
  1  'x, y, z'
loop_
 _atom_site_type_symbol
 _atom_site_label
 _atom_site_symmetry_multiplicity
 _atom_site_fract_x
 _atom_site_fract_y
 _atom_site_fract_z
 _atom_site_occupancy
  Co  Co0  1  0.75000000  0.84413401  0.00000000  1
  Co  Co1  1  0.25000000  0.65586599  0.50000000  1
  Co  Co2  1  0.25000000  0.15586599  0.00000000  1
  Co  Co3  1  0.75000000  0.34413401  0.50000000  1
  Nb  Nb4  1  0.25578185  0.68157324  0.84034902  1
  Nb  Nb5  1  0.75578185  0.81842676  0.65965098  1
  Nb  Nb6  1  0.24421815  0.68157324  0.15965098  1
  Nb  Nb7  1  0.74421815  0.81842676  0.34034902  1
  Nb  Nb8  1  0.74421815  0.31842676  0.15965098  1
  Nb  Nb9  1  0.24421815  0.18157324  0.34034902  1
  Nb  Nb10  1  0.75578185  0.31842676  0.84034902  1
  Nb  Nb11  1  0.25578185  0.18157324  0.65965098  1
  O  O12  1  0.58092914  0.60729423  0.90441306  1
  O  O13  1  0.08092914  0.89270577  0.59558694  1
  O  O14  1  0.91907086  0.60729423  0.09558694  1
  O  O15  1  0.41907086  0.89270577  0.40441306  1
  O  O16  1  0.41907086  0.39270577  0.09558694  1
  O  O17  1  0.91907086  0.10729423  0.40441306  1
  O  O18  1  0.08092914  0.39270577  0.90441306  1
  O  O19  1  0.58092914  0.10729423  0.59558694  1
  O  O20  1  0.09272132  0.88048891  0.92174425  1
  O  O21  1  0.59272132  0.61951109  0.57825575  1
  O  O22  1  0.40727868  0.88048891  0.07825575  1
  O  O23  1  0.90727868  0.61951109  0.42174425  1
  O  O24  1  0.90727868  0.11951109  0.07825575  1
  O  O25  1  0.40727868  0.38048891  0.42174425  1
  O  O26  1  0.59272132  0.11951109  0.92174425  1
  O  O27  1  0.09272132  0.38048891  0.57825575  1
  O  O28  1  0.42645602  0.87589374  0.74482706  1
  O  O29  1  0.92645602  0.62410626  0.75517294  1
  O  O30  1  0.07354398  0.87589374  0.25517294  1
  O  O31  1  0.57354398  0.62410626  0.24482706  1
  O  O32  1  0.57354398  0.12410626  0.25517294  1
  O  O33  1  0.07354398  0.37589374  0.24482706  1
  O  O34  1  0.92645602  0.12410626  0.74482706  1
  O  O35  1  0.42645602  0.37589374  0.75517294  1
