# generated using pymatgen
data_SrCu2O3
_symmetry_space_group_name_H-M   'P 1'
_cell_length_a   3.55978595
_cell_length_b   3.97495981
_cell_length_c   6.12257042
_cell_angle_alpha   108.94226844
_cell_angle_beta   90.00000000
_cell_angle_gamma   90.00000000
_symmetry_Int_Tables_number   1
_chemical_formula_structural   SrCu2O3
_chemical_formula_sum   'Sr1 Cu2 O3'
_cell_volume   81.94282111
_cell_formula_units_Z   1
loop_
 _symmetry_equiv_pos_site_id
 _symmetry_equiv_pos_as_xyz
  1  'x, y, z'
loop_
 _atom_site_type_symbol
 _atom_site_label
 _atom_site_symmetry_multiplicity
 _atom_site_fract_x
 _atom_site_fract_y
 _atom_site_fract_z
 _atom_site_occupancy
  O  O0  1  0.00000000  0.82976828  0.65953656  1
  O  O1  1  0.00000000  0.17023172  0.34046344  1
  O  O2  1  0.00000000  0.50000000  0.00000000  1
  Cu  Cu3  1  0.00000000  0.33492193  0.66984386  1
  Cu  Cu4  1  0.00000000  0.66507807  0.33015614  1
  Sr  Sr5  1  0.50000000  0.00000000  0.00000000  1
