# generated using pymatgen
data_TaIr
_symmetry_space_group_name_H-M   'P 1'
_cell_length_a   2.88052442
_cell_length_b   4.86443399
_cell_length_c   13.85160659
_cell_angle_alpha   90.00000000
_cell_angle_beta   90.00000000
_cell_angle_gamma   90.00000000
_symmetry_Int_Tables_number   1
_chemical_formula_structural   TaIr
_chemical_formula_sum   'Ta6 Ir6'
_cell_volume   194.09038617
_cell_formula_units_Z   6
loop_
 _symmetry_equiv_pos_site_id
 _symmetry_equiv_pos_as_xyz
  1  'x, y, z'
loop_
 _atom_site_type_symbol
 _atom_site_label
 _atom_site_symmetry_multiplicity
 _atom_site_fract_x
 _atom_site_fract_y
 _atom_site_fract_z
 _atom_site_occupancy
  Ta  Ta0  1  0.00000000  0.94879466  0.75000000  1
  Ta  Ta1  1  0.00000000  0.32543857  0.91447231  1
  Ta  Ta2  1  0.00000000  0.67456143  0.41447231  1
  Ta  Ta3  1  0.00000000  0.67456143  0.08552769  1
  Ta  Ta4  1  0.00000000  0.05120534  0.25000000  1
  Ta  Ta5  1  0.00000000  0.32543857  0.58552769  1
  Ir  Ir6  1  0.50000000  0.45862793  0.75000000  1
  Ir  Ir7  1  0.50000000  0.54137207  0.25000000  1
  Ir  Ir8  1  0.50000000  0.82332860  0.91803699  1
  Ir  Ir9  1  0.50000000  0.82332860  0.58196301  1
  Ir  Ir10  1  0.50000000  0.17667140  0.08196301  1
  Ir  Ir11  1  0.50000000  0.17667140  0.41803699  1
