# generated using pymatgen
data_LiB6C
_symmetry_space_group_name_H-M   'P 1'
_cell_length_a   4.70463492
_cell_length_b   5.32001047
_cell_length_c   5.32001006
_cell_angle_alpha   115.83138524
_cell_angle_beta   90.00000000
_cell_angle_gamma   90.00000000
_symmetry_Int_Tables_number   1
_chemical_formula_structural   LiB6C
_chemical_formula_sum   'Li2 B12 C2'
_cell_volume   119.84835820
_cell_formula_units_Z   2
loop_
 _symmetry_equiv_pos_site_id
 _symmetry_equiv_pos_as_xyz
  1  'x, y, z'
loop_
 _atom_site_type_symbol
 _atom_site_label
 _atom_site_symmetry_multiplicity
 _atom_site_fract_x
 _atom_site_fract_y
 _atom_site_fract_z
 _atom_site_occupancy
  Li  Li0  1  0.50000000  0.52797935  0.11277392  1
  Li  Li1  1  0.50000000  0.11277392  0.52797935  1
  B  B2  1  0.81710210  0.25766866  0.25766866  1
  B  B3  1  0.69378814  0.90233883  0.09773069  1
  B  B4  1  0.69378814  0.09773069  0.90233883  1
  B  B5  1  0.18345792  0.74345970  0.74345970  1
  B  B6  1  0.00000000  0.33233450  0.99349877  1
  B  B7  1  0.30621186  0.09773069  0.90233883  1
  B  B8  1  0.00000000  0.00713864  0.66934276  1
  B  B9  1  0.00000000  0.99349877  0.33233450  1
  B  B10  1  0.30621186  0.90233883  0.09773069  1
  B  B11  1  0.18289790  0.25766866  0.25766866  1
  B  B12  1  0.00000000  0.66934276  0.00713864  1
  B  B13  1  0.81654208  0.74345970  0.74345970  1
  C  C14  1  0.64651198  0.50196816  0.50196816  1
  C  C15  1  0.35348802  0.50196816  0.50196816  1
