# generated using pymatgen
data_Hf(FeSi)2
_symmetry_space_group_name_H-M   'P 1'
_cell_length_a   5.02075628
_cell_length_b   7.03193978
_cell_length_c   7.43059543
_cell_angle_alpha   90.00000000
_cell_angle_beta   90.00000000
_cell_angle_gamma   90.00000000
_symmetry_Int_Tables_number   1
_chemical_formula_structural   Hf(FeSi)2
_chemical_formula_sum   'Hf4 Fe8 Si8'
_cell_volume   262.34204472
_cell_formula_units_Z   4
loop_
 _symmetry_equiv_pos_site_id
 _symmetry_equiv_pos_as_xyz
  1  'x, y, z'
loop_
 _atom_site_type_symbol
 _atom_site_label
 _atom_site_symmetry_multiplicity
 _atom_site_fract_x
 _atom_site_fract_y
 _atom_site_fract_z
 _atom_site_occupancy
  Hf  Hf0  1  0.75000000  0.90648411  0.75149185  1
  Hf  Hf1  1  0.25000000  0.09351589  0.24850815  1
  Hf  Hf2  1  0.75000000  0.40648411  0.24850815  1
  Hf  Hf3  1  0.25000000  0.59351589  0.75149185  1
  Fe  Fe4  1  0.75000000  0.51679135  0.89150352  1
  Fe  Fe5  1  0.25000000  0.48320865  0.10849648  1
  Fe  Fe6  1  0.75000000  0.01679135  0.10849648  1
  Fe  Fe7  1  0.25000000  0.98320865  0.89150352  1
  Fe  Fe8  1  0.00000000  0.75000000  0.38986792  1
  Fe  Fe9  1  0.50000000  0.25000000  0.61013208  1
  Fe  Fe10  1  0.00000000  0.25000000  0.61013208  1
  Fe  Fe11  1  0.50000000  0.75000000  0.38986792  1
  Si  Si12  1  0.75000000  0.54906172  0.58559392  1
  Si  Si13  1  0.25000000  0.45093828  0.41440608  1
  Si  Si14  1  0.75000000  0.04906172  0.41440608  1
  Si  Si15  1  0.25000000  0.95093828  0.58559392  1
  Si  Si16  1  0.00000000  0.75000000  0.05639379  1
  Si  Si17  1  0.50000000  0.25000000  0.94360621  1
  Si  Si18  1  0.00000000  0.25000000  0.94360621  1
  Si  Si19  1  0.50000000  0.75000000  0.05639379  1
