# generated using pymatgen
data_Sn2Ru
_symmetry_space_group_name_H-M   'P 1'
_cell_length_a   5.40459201
_cell_length_b   5.40459172
_cell_length_c   5.40459208
_cell_angle_alpha   106.77311738
_cell_angle_beta   106.77311652
_cell_angle_gamma   115.01369370
_symmetry_Int_Tables_number   1
_chemical_formula_structural   Sn2Ru
_chemical_formula_sum   'Sn4 Ru2'
_cell_volume   120.66415045
_cell_formula_units_Z   2
loop_
 _symmetry_equiv_pos_site_id
 _symmetry_equiv_pos_as_xyz
  1  'x, y, z'
loop_
 _atom_site_type_symbol
 _atom_site_label
 _atom_site_symmetry_multiplicity
 _atom_site_fract_x
 _atom_site_fract_y
 _atom_site_fract_z
 _atom_site_occupancy
  Ru  Ru0  1  0.25000000  0.25000000  0.00000000  1
  Ru  Ru1  1  0.75000000  0.75000000  0.00000000  1
  Sn  Sn2  1  0.66303161  0.16303161  0.82606321  1
  Sn  Sn3  1  0.16303161  0.33696839  0.50000000  1
  Sn  Sn4  1  0.83696839  0.66303161  0.50000000  1
  Sn  Sn5  1  0.33696839  0.83696839  0.17393679  1
