# generated using pymatgen
data_Cr(FeSe2)2
_symmetry_space_group_name_H-M   'P 1'
_cell_length_a   3.52689880
_cell_length_b   6.19380541
_cell_length_c   6.64291194
_cell_angle_alpha   115.93520192
_cell_angle_beta   105.39218860
_cell_angle_gamma   89.99377630
_symmetry_Int_Tables_number   1
_chemical_formula_structural   Cr(FeSe2)2
_chemical_formula_sum   'Cr1 Fe2 Se4'
_cell_volume   124.68790704
_cell_formula_units_Z   1
loop_
 _symmetry_equiv_pos_site_id
 _symmetry_equiv_pos_as_xyz
  1  'x, y, z'
loop_
 _atom_site_type_symbol
 _atom_site_label
 _atom_site_symmetry_multiplicity
 _atom_site_fract_x
 _atom_site_fract_y
 _atom_site_fract_z
 _atom_site_occupancy
  Cr  Cr0  1  0.00000000  0.00000000  0.00000000  1
  Fe  Fe1  1  0.25604777  0.30713875  0.51198573  1
  Fe  Fe2  1  0.74395223  0.69286125  0.48801427  1
  Se  Se3  1  0.63991598  0.98078420  0.27986337  1
  Se  Se4  1  0.88723943  0.54329437  0.77459443  1
  Se  Se5  1  0.11276057  0.45670563  0.22540557  1
  Se  Se6  1  0.36008402  0.01921580  0.72013663  1
