# generated using pymatgen
data_Ag2PdO2
_symmetry_space_group_name_H-M   'P 1'
_cell_length_a   3.05727614
_cell_length_b   4.59611479
_cell_length_c   5.80449800
_cell_angle_alpha   113.33883729
_cell_angle_beta   105.26917333
_cell_angle_gamma   89.99999993
_symmetry_Int_Tables_number   1
_chemical_formula_structural   Ag2PdO2
_chemical_formula_sum   'Ag2 Pd1 O2'
_cell_volume   71.74229372
_cell_formula_units_Z   1
loop_
 _symmetry_equiv_pos_site_id
 _symmetry_equiv_pos_as_xyz
  1  'x, y, z'
loop_
 _atom_site_type_symbol
 _atom_site_label
 _atom_site_symmetry_multiplicity
 _atom_site_fract_x
 _atom_site_fract_y
 _atom_site_fract_z
 _atom_site_occupancy
  O  O0  1  0.63712734  0.13726935  0.27425468  1
  O  O1  1  0.36287266  0.86273065  0.72574532  1
  Pd  Pd2  1  0.00000000  0.00000000  0.00000000  1
  Ag  Ag3  1  0.35941236  0.35925073  0.71882473  1
  Ag  Ag4  1  0.64058764  0.64074927  0.28117527  1
