# generated using pymatgen
data_Si5Rh4
_symmetry_space_group_name_H-M   'P 1'
_cell_length_a   3.55905722
_cell_length_b   5.98827266
_cell_length_c   12.44866777
_cell_angle_alpha   100.08836815
_cell_angle_beta   90.00000000
_cell_angle_gamma   90.00000000
_symmetry_Int_Tables_number   1
_chemical_formula_structural   Si5Rh4
_chemical_formula_sum   'Si10 Rh8'
_cell_volume   261.21146388
_cell_formula_units_Z   2
loop_
 _symmetry_equiv_pos_site_id
 _symmetry_equiv_pos_as_xyz
  1  'x, y, z'
loop_
 _atom_site_type_symbol
 _atom_site_label
 _atom_site_symmetry_multiplicity
 _atom_site_fract_x
 _atom_site_fract_y
 _atom_site_fract_z
 _atom_site_occupancy
  Si  Si0  1  0.75000000  0.51295880  0.07739819  1
  Si  Si1  1  0.75000000  0.97985344  0.13982421  1
  Si  Si2  1  0.25000000  0.63849046  0.63535524  1
  Si  Si3  1  0.25000000  0.89320862  0.42245019  1
  Si  Si4  1  0.25000000  0.46711314  0.22384158  1
  Si  Si5  1  0.25000000  0.48704120  0.92260181  1
  Si  Si6  1  0.75000000  0.36150954  0.36464476  1
  Si  Si7  1  0.75000000  0.53288686  0.77615842  1
  Si  Si8  1  0.25000000  0.02014656  0.86017579  1
  Si  Si9  1  0.75000000  0.10679138  0.57754981  1
  Rh  Rh10  1  0.25000000  0.30008822  0.50003657  1
  Rh  Rh11  1  0.75000000  0.69991178  0.49996343  1
  Rh  Rh12  1  0.75000000  0.89232327  0.72668821  1
  Rh  Rh13  1  0.25000000  0.10767673  0.27331179  1
  Rh  Rh14  1  0.25000000  0.28528736  0.73017163  1
  Rh  Rh15  1  0.25000000  0.20905664  0.05011897  1
  Rh  Rh16  1  0.75000000  0.79094336  0.94988103  1
  Rh  Rh17  1  0.75000000  0.71471264  0.26982837  1
