# generated using pymatgen
data_Al13Os4
_symmetry_space_group_name_H-M   'P 1'
_cell_length_a   4.24135213
_cell_length_b   7.81811287
_cell_length_c   9.10522655
_cell_angle_alpha   115.06427141
_cell_angle_beta   103.45365727
_cell_angle_gamma   90.00852504
_symmetry_Int_Tables_number   1
_chemical_formula_structural   Al13Os4
_chemical_formula_sum   'Al13 Os4'
_cell_volume   264.31235554
_cell_formula_units_Z   1
loop_
 _symmetry_equiv_pos_site_id
 _symmetry_equiv_pos_as_xyz
  1  'x, y, z'
loop_
 _atom_site_type_symbol
 _atom_site_label
 _atom_site_symmetry_multiplicity
 _atom_site_fract_x
 _atom_site_fract_y
 _atom_site_fract_z
 _atom_site_occupancy
  Al  Al0  1  0.86964144  0.84424410  0.73964555  1
  Al  Al1  1  0.79159381  0.08489245  0.58315674  1
  Al  Al2  1  0.58823310  0.80098322  0.17651977  1
  Al  Al3  1  0.58737523  0.36677402  0.17498913  1
  Al  Al4  1  0.13035856  0.15575590  0.26035445  1
  Al  Al5  1  0.74095410  0.38495812  0.48177887  1
  Al  Al6  1  0.08514784  0.56919769  0.17023257  1
  Al  Al7  1  0.41262477  0.63322598  0.82501087  1
  Al  Al8  1  0.50000000  0.00000000  0.00000000  1
  Al  Al9  1  0.41176690  0.19901678  0.82348023  1
  Al  Al10  1  0.25904590  0.61504188  0.51822113  1
  Al  Al11  1  0.20840619  0.91510755  0.41684326  1
  Al  Al12  1  0.91485216  0.43080231  0.82976743  1
  Os  Os13  1  0.00827796  0.80426274  0.01636751  1
  Os  Os14  1  0.29414161  0.29155813  0.58820862  1
  Os  Os15  1  0.99172204  0.19573726  0.98363249  1
  Os  Os16  1  0.70585839  0.70844187  0.41179138  1
