# generated using pymatgen
data_GePt
_symmetry_space_group_name_H-M   'P 1'
_cell_length_a   3.73036355
_cell_length_b   5.87201690
_cell_length_c   6.18541712
_cell_angle_alpha   90.00000000
_cell_angle_beta   90.00000000
_cell_angle_gamma   90.00000000
_symmetry_Int_Tables_number   1
_chemical_formula_structural   GePt
_chemical_formula_sum   'Ge4 Pt4'
_cell_volume   135.49006396
_cell_formula_units_Z   4
loop_
 _symmetry_equiv_pos_site_id
 _symmetry_equiv_pos_as_xyz
  1  'x, y, z'
loop_
 _atom_site_type_symbol
 _atom_site_label
 _atom_site_symmetry_multiplicity
 _atom_site_fract_x
 _atom_site_fract_y
 _atom_site_fract_z
 _atom_site_occupancy
  Ge  Ge0  1  0.75000000  0.81234296  0.41310281  1
  Ge  Ge1  1  0.25000000  0.18765704  0.58689719  1
  Ge  Ge2  1  0.75000000  0.31234296  0.08689719  1
  Ge  Ge3  1  0.25000000  0.68765704  0.91310281  1
  Pt  Pt4  1  0.75000000  1.00013847  0.80655404  1
  Pt  Pt5  1  0.25000000  -0.00013847  0.19344596  1
  Pt  Pt6  1  0.75000000  0.50013847  0.69344596  1
  Pt  Pt7  1  0.25000000  0.49986153  0.30655404  1
