# generated using pymatgen
data_ZnS
_symmetry_space_group_name_H-M   'P 1'
_cell_length_a   19.01215712
_cell_length_b   19.01215724
_cell_length_c   19.01215784
_cell_angle_alpha   11.64440899
_cell_angle_beta   11.64440720
_cell_angle_gamma   11.64440942
_symmetry_Int_Tables_number   1
_chemical_formula_structural   ZnS
_chemical_formula_sum   'Zn6 S6'
_cell_volume   243.28709481
_cell_formula_units_Z   6
loop_
 _symmetry_equiv_pos_site_id
 _symmetry_equiv_pos_as_xyz
  1  'x, y, z'
loop_
 _atom_site_type_symbol
 _atom_site_label
 _atom_site_symmetry_multiplicity
 _atom_site_fract_x
 _atom_site_fract_y
 _atom_site_fract_z
 _atom_site_occupancy
  Zn  Zn0  1  0.55556691  0.55556691  0.55556691  1
  Zn  Zn1  1  0.16668092  0.16668092  0.16668092  1
  Zn  Zn2  1  0.38893799  0.38893799  0.38893799  1
  Zn  Zn3  1  0.27780200  0.27780200  0.27780200  1
  Zn  Zn4  1  0.00001550  0.00001550  0.00001550  1
  Zn  Zn5  1  0.77780738  0.77780738  0.77780738  1
  S  S6  1  0.59723136  0.59723136  0.59723136  1
  S  S7  1  0.04168394  0.04168394  0.04168394  1
  S  S8  1  0.43055959  0.43055959  0.43055959  1
  S  S9  1  0.20828492  0.20828492  0.20828492  1
  S  S10  1  0.31939475  0.31939475  0.31939475  1
  S  S11  1  0.81943074  0.81943074  0.81943074  1
