# generated using pymatgen
data_Si2Pd9
_symmetry_space_group_name_H-M   'P 1'
_cell_length_a   7.53468363
_cell_length_b   9.17728422
_cell_length_c   9.55579418
_cell_angle_alpha   90.00000000
_cell_angle_beta   90.00000000
_cell_angle_gamma   90.00000000
_symmetry_Int_Tables_number   1
_chemical_formula_structural   Si2Pd9
_chemical_formula_sum   'Si8 Pd36'
_cell_volume   660.76341744
_cell_formula_units_Z   4
loop_
 _symmetry_equiv_pos_site_id
 _symmetry_equiv_pos_as_xyz
  1  'x, y, z'
loop_
 _atom_site_type_symbol
 _atom_site_label
 _atom_site_symmetry_multiplicity
 _atom_site_fract_x
 _atom_site_fract_y
 _atom_site_fract_z
 _atom_site_occupancy
  Pd  Pd0  1  0.93396924  0.89801002  0.68106633  1
  Pd  Pd1  1  0.43396924  0.10198998  0.31893367  1
  Pd  Pd2  1  0.56603076  0.39801002  0.81893367  1
  Pd  Pd3  1  0.06603076  0.60198998  0.18106633  1
  Pd  Pd4  1  0.06603076  0.10198998  0.31893367  1
  Pd  Pd5  1  0.56603076  0.89801002  0.68106633  1
  Pd  Pd6  1  0.43396924  0.60198998  0.18106633  1
  Pd  Pd7  1  0.93396924  0.39801002  0.81893367  1
  Pd  Pd8  1  0.94242603  0.61211620  0.59362941  1
  Pd  Pd9  1  0.44242603  0.38788380  0.40637059  1
  Pd  Pd10  1  0.55757397  0.11211620  0.90637059  1
  Pd  Pd11  1  0.05757397  0.88788380  0.09362941  1
  Pd  Pd12  1  0.05757397  0.38788380  0.40637059  1
  Pd  Pd13  1  0.55757397  0.61211620  0.59362941  1
  Pd  Pd14  1  0.44242603  0.88788380  0.09362941  1
  Pd  Pd15  1  0.94242603  0.11211620  0.90637059  1
  Pd  Pd16  1  0.94102798  0.81780703  0.37738309  1
  Pd  Pd17  1  0.44102798  0.18219297  0.62261691  1
  Pd  Pd18  1  0.55897202  0.31780703  0.12261691  1
  Pd  Pd19  1  0.05897202  0.68219297  0.87738309  1
  Pd  Pd20  1  0.05897202  0.18219297  0.62261691  1
  Pd  Pd21  1  0.55897202  0.81780703  0.37738309  1
  Pd  Pd22  1  0.44102798  0.68219297  0.87738309  1
  Pd  Pd23  1  0.94102798  0.31780703  0.12261691  1
  Pd  Pd24  1  0.75000000  0.85111705  0.93267688  1
  Pd  Pd25  1  0.25000000  0.14888295  0.06732312  1
  Pd  Pd26  1  0.75000000  0.35111705  0.56732312  1
  Pd  Pd27  1  0.25000000  0.64888295  0.43267688  1
  Pd  Pd28  1  0.75000000  0.55020542  0.33487222  1
  Pd  Pd29  1  0.25000000  0.44979458  0.66512778  1
  Pd  Pd30  1  0.75000000  0.05020542  0.16512778  1
  Pd  Pd31  1  0.25000000  0.94979458  0.83487222  1
  Pd  Pd32  1  0.75000000  0.55935018  0.02962336  1
  Pd  Pd33  1  0.25000000  0.44064982  0.97037664  1
  Pd  Pd34  1  0.75000000  0.05935018  0.47037664  1
  Pd  Pd35  1  0.25000000  0.94064982  0.52962336  1
  Si  Si36  1  0.75000000  0.63212701  0.78831271  1
  Si  Si37  1  0.25000000  0.36787299  0.21168729  1
  Si  Si38  1  0.75000000  0.13212701  0.71168729  1
  Si  Si39  1  0.25000000  0.86787299  0.28831271  1
  Si  Si40  1  0.75000000  0.77264084  0.17805561  1
  Si  Si41  1  0.25000000  0.22735916  0.82194439  1
  Si  Si42  1  0.75000000  0.27264084  0.32194439  1
  Si  Si43  1  0.25000000  0.72735916  0.67805561  1
