# generated using pymatgen
data_CoCuO2
_symmetry_space_group_name_H-M   'P 1'
_cell_length_a   5.90270245
_cell_length_b   5.90270277
_cell_length_c   5.90270290
_cell_angle_alpha   28.11798782
_cell_angle_beta   28.11798204
_cell_angle_gamma   28.11798540
_symmetry_Int_Tables_number   1
_chemical_formula_structural   CoCuO2
_chemical_formula_sum   'Co1 Cu1 O2'
_cell_volume   40.35318677
_cell_formula_units_Z   1
loop_
 _symmetry_equiv_pos_site_id
 _symmetry_equiv_pos_as_xyz
  1  'x, y, z'
loop_
 _atom_site_type_symbol
 _atom_site_label
 _atom_site_symmetry_multiplicity
 _atom_site_fract_x
 _atom_site_fract_y
 _atom_site_fract_z
 _atom_site_occupancy
  Co  Co0  1  0.49999897  0.49999897  0.49999897  1
  Cu  Cu1  1  0.00000011  0.00000011  0.00000011  1
  O  O2  1  0.89100503  0.89100503  0.89100503  1
  O  O3  1  0.10899589  0.10899589  0.10899589  1
