# generated using pymatgen
data_TiSb2
_symmetry_space_group_name_H-M   'P 1'
_cell_length_a   5.57118233
_cell_length_b   5.57118233
_cell_length_c   5.57118233
_cell_angle_alpha   105.67193834
_cell_angle_beta   105.67193841
_cell_angle_gamma   117.37047105
_symmetry_Int_Tables_number   1
_chemical_formula_structural   TiSb2
_chemical_formula_sum   'Ti2 Sb4'
_cell_volume   131.19092904
_cell_formula_units_Z   2
loop_
 _symmetry_equiv_pos_site_id
 _symmetry_equiv_pos_as_xyz
  1  'x, y, z'
loop_
 _atom_site_type_symbol
 _atom_site_label
 _atom_site_symmetry_multiplicity
 _atom_site_fract_x
 _atom_site_fract_y
 _atom_site_fract_z
 _atom_site_occupancy
  Ti  Ti0  1  0.75000000  0.75000000  0.00000000  1
  Ti  Ti1  1  0.25000000  0.25000000  0.00000000  1
  Sb  Sb2  1  0.84728552  0.65271448  0.50000000  1
  Sb  Sb3  1  0.34728552  0.84728552  0.19457103  1
  Sb  Sb4  1  0.15271448  0.34728552  0.50000000  1
  Sb  Sb5  1  0.65271448  0.15271448  0.80542897  1
