# generated using pymatgen
data_Be12V
_symmetry_space_group_name_H-M   'P 1'
_cell_length_a   4.15046038
_cell_length_b   5.50427385
_cell_length_c   5.50427354
_cell_angle_alpha   81.82799555
_cell_angle_beta   67.85068370
_cell_angle_gamma   67.85067896
_symmetry_Int_Tables_number   1
_chemical_formula_structural   Be12V
_chemical_formula_sum   'Be12 V1'
_cell_volume   107.87232371
_cell_formula_units_Z   1
loop_
 _symmetry_equiv_pos_site_id
 _symmetry_equiv_pos_as_xyz
  1  'x, y, z'
loop_
 _atom_site_type_symbol
 _atom_site_label
 _atom_site_symmetry_multiplicity
 _atom_site_fract_x
 _atom_site_fract_y
 _atom_site_fract_z
 _atom_site_occupancy
  Be  Be0  1  0.50000000  0.78799891  0.21200109  1
  Be  Be1  1  0.34905000  0.65095000  0.65095000  1
  Be  Be2  1  1.00000000  0.34905000  0.65095000  1
  Be  Be3  1  0.00000000  0.65095000  0.34905000  1
  Be  Be4  1  0.71200109  0.78799891  0.78799891  1
  Be  Be5  1  0.50000000  0.00000000  0.50000000  1
  Be  Be6  1  0.50000000  0.21200109  0.78799891  1
  Be  Be7  1  0.65095000  0.34905000  0.34905000  1
  Be  Be8  1  0.28799891  0.21200109  0.21200109  1
  Be  Be9  1  0.50000000  0.50000000  0.00000000  1
  Be  Be10  1  0.00000000  0.50000000  0.00000000  1
  Be  Be11  1  0.00000000  0.00000000  0.50000000  1
  V  V12  1  0.00000000  0.00000000  0.00000000  1
