# generated using pymatgen
data_Mg9Si5
_symmetry_space_group_name_H-M   'P 1'
_cell_length_a   7.17867129
_cell_length_b   7.17867160
_cell_length_c   12.29331828
_cell_angle_alpha   90.00000000
_cell_angle_beta   90.00000000
_cell_angle_gamma   119.99999855
_symmetry_Int_Tables_number   1
_chemical_formula_structural   Mg9Si5
_chemical_formula_sum   'Mg18 Si10'
_cell_volume   548.64056868
_cell_formula_units_Z   2
loop_
 _symmetry_equiv_pos_site_id
 _symmetry_equiv_pos_as_xyz
  1  'x, y, z'
loop_
 _atom_site_type_symbol
 _atom_site_label
 _atom_site_symmetry_multiplicity
 _atom_site_fract_x
 _atom_site_fract_y
 _atom_site_fract_z
 _atom_site_occupancy
  Si  Si0  1  0.00000000  0.00000000  0.39809814  1
  Si  Si1  1  0.00000000  0.00000000  0.89809814  1
  Si  Si2  1  0.00000000  0.00000000  0.60190186  1
  Si  Si3  1  0.00000000  0.00000000  0.10190186  1
  Si  Si4  1  0.66666700  0.33333300  0.25000000  1
  Si  Si5  1  0.33333300  0.66666700  0.75000000  1
  Si  Si6  1  0.33333300  0.66666700  0.08802415  1
  Si  Si7  1  0.66666700  0.33333300  0.58802415  1
  Si  Si8  1  0.66666700  0.33333300  0.91197585  1
  Si  Si9  1  0.33333300  0.66666700  0.41197585  1
  Mg  Mg10  1  0.59448721  0.67907987  0.58312584  1
  Mg  Mg11  1  0.91540734  0.59448721  0.08312584  1
  Mg  Mg12  1  0.67907987  0.08459266  0.08312584  1
  Mg  Mg13  1  0.32092013  0.91540734  0.58312584  1
  Mg  Mg14  1  0.08459266  0.40551279  0.58312584  1
  Mg  Mg15  1  0.40551279  0.32092013  0.08312584  1
  Mg  Mg16  1  0.40551279  0.32092013  0.41687416  1
  Mg  Mg17  1  0.08459266  0.40551279  0.91687416  1
  Mg  Mg18  1  0.32092013  0.91540734  0.91687416  1
  Mg  Mg19  1  0.67907987  0.08459266  0.41687416  1
  Mg  Mg20  1  0.91540734  0.59448721  0.41687416  1
  Mg  Mg21  1  0.59448721  0.67907987  0.91687416  1
  Mg  Mg22  1  0.65371412  0.72597150  0.25000000  1
  Mg  Mg23  1  0.92774262  0.65371412  0.75000000  1
  Mg  Mg24  1  0.72597150  0.07225738  0.75000000  1
  Mg  Mg25  1  0.27402850  0.92774262  0.25000000  1
  Mg  Mg26  1  0.07225738  0.34628588  0.25000000  1
  Mg  Mg27  1  0.34628588  0.27402850  0.75000000  1
