# generated using pymatgen
data_Bi2Se3
_symmetry_space_group_name_H-M   'P 1'
_cell_length_a   4.18976635
_cell_length_b   4.18976635
_cell_length_c   10.42166882
_cell_angle_alpha   78.40384297
_cell_angle_beta   78.40384297
_cell_angle_gamma   59.99999958
_symmetry_Int_Tables_number   1
_chemical_formula_structural   Bi2Se3
_chemical_formula_sum   'Bi2 Se3'
_cell_volume   154.10682351
_cell_formula_units_Z   1
loop_
 _symmetry_equiv_pos_site_id
 _symmetry_equiv_pos_as_xyz
  1  'x, y, z'
loop_
 _atom_site_type_symbol
 _atom_site_label
 _atom_site_symmetry_multiplicity
 _atom_site_fract_x
 _atom_site_fract_y
 _atom_site_fract_z
 _atom_site_occupancy
  Bi  Bi0  1  0.39734025  0.39734025  0.80797925  1
  Bi  Bi1  1  0.60265975  0.60265975  0.19202075  1
  Se  Se2  1  0.00000000  0.00000000  0.00000000  1
  Se  Se3  1  0.78214745  0.78214745  0.65355764  1
  Se  Se4  1  0.21785255  0.21785255  0.34644236  1
