# generated using pymatgen
data_Nb5Si3
_symmetry_space_group_name_H-M   'P 1'
_cell_length_a   5.10622128
_cell_length_b   7.57354909
_cell_length_c   7.57354939
_cell_angle_alpha   83.47467463
_cell_angle_beta   70.29917549
_cell_angle_gamma   70.29917493
_symmetry_Int_Tables_number   1
_chemical_formula_structural   Nb5Si3
_chemical_formula_sum   'Nb10 Si6'
_cell_volume   259.60170197
_cell_formula_units_Z   2
loop_
 _symmetry_equiv_pos_site_id
 _symmetry_equiv_pos_as_xyz
  1  'x, y, z'
loop_
 _atom_site_type_symbol
 _atom_site_label
 _atom_site_symmetry_multiplicity
 _atom_site_fract_x
 _atom_site_fract_y
 _atom_site_fract_z
 _atom_site_occupancy
  Nb  Nb0  1  0.57600266  0.70467133  0.14332335  1
  Nb  Nb1  1  0.71932601  0.85667665  0.70467133  1
  Nb  Nb2  1  0.42399734  0.29532867  0.85667665  1
  Nb  Nb3  1  0.25000000  0.50000000  0.50000000  1
  Nb  Nb4  1  0.92399734  0.85667665  0.29532867  1
  Nb  Nb5  1  0.78067399  0.29532867  0.14332335  1
  Nb  Nb6  1  0.28067399  0.14332335  0.29532867  1
  Nb  Nb7  1  0.07600266  0.14332335  0.70467133  1
  Nb  Nb8  1  0.21932601  0.70467133  0.85667665  1
  Nb  Nb9  1  0.75000000  0.50000000  0.50000000  1
  Si  Si10  1  0.16472498  0.50000000  0.17055004  1
  Si  Si11  1  0.25000000  0.00000000  0.00000000  1
  Si  Si12  1  0.75000000  0.00000000  0.00000000  1
  Si  Si13  1  0.66472498  0.17055004  0.50000000  1
  Si  Si14  1  0.33527502  0.82944996  0.50000000  1
  Si  Si15  1  0.83527502  0.50000000  0.82944996  1
