# generated using pymatgen
data_NaSbS2
_symmetry_space_group_name_H-M   'P 1'
_cell_length_a   5.88284381
_cell_length_b   5.88284381
_cell_length_c   6.90859206
_cell_angle_alpha   112.95904883
_cell_angle_beta   112.95904875
_cell_angle_gamma   91.06123678
_symmetry_Int_Tables_number   1
_chemical_formula_structural   NaSbS2
_chemical_formula_sum   'Na2 Sb2 S4'
_cell_volume   198.56212291
_cell_formula_units_Z   2
loop_
 _symmetry_equiv_pos_site_id
 _symmetry_equiv_pos_as_xyz
  1  'x, y, z'
loop_
 _atom_site_type_symbol
 _atom_site_label
 _atom_site_symmetry_multiplicity
 _atom_site_fract_x
 _atom_site_fract_y
 _atom_site_fract_z
 _atom_site_occupancy
  Na  Na0  1  0.63378213  0.36621787  0.75000000  1
  Na  Na1  1  0.36621787  0.63378213  0.25000000  1
  S  S2  1  0.68547590  0.86953350  0.76381054  1
  S  S3  1  0.13046650  0.31452410  0.73618946  1
  S  S4  1  0.31452410  0.13046650  0.23618946  1
  S  S5  1  0.86953350  0.68547590  0.26381054  1
  Sb  Sb6  1  0.90042011  0.09957989  0.25000000  1
  Sb  Sb7  1  0.09957989  0.90042011  0.75000000  1
