# generated using pymatgen
data_ScNiSn
_symmetry_space_group_name_H-M   'P 1'
_cell_length_a   4.36737427
_cell_length_b   6.66807908
_cell_length_c   7.53292452
_cell_angle_alpha   90.00000000
_cell_angle_beta   90.00000000
_cell_angle_gamma   90.00000000
_symmetry_Int_Tables_number   1
_chemical_formula_structural   ScNiSn
_chemical_formula_sum   'Sc4 Ni4 Sn4'
_cell_volume   219.37380531
_cell_formula_units_Z   4
loop_
 _symmetry_equiv_pos_site_id
 _symmetry_equiv_pos_as_xyz
  1  'x, y, z'
loop_
 _atom_site_type_symbol
 _atom_site_label
 _atom_site_symmetry_multiplicity
 _atom_site_fract_x
 _atom_site_fract_y
 _atom_site_fract_z
 _atom_site_occupancy
  Sc  Sc0  1  0.75000000  0.98932791  0.29163419  1
  Sc  Sc1  1  0.25000000  0.01067209  0.70836581  1
  Sc  Sc2  1  0.75000000  0.48932791  0.20836581  1
  Sc  Sc3  1  0.25000000  0.51067209  0.79163419  1
  Ni  Ni4  1  0.75000000  0.70876647  0.58388336  1
  Ni  Ni5  1  0.25000000  0.29123353  0.41611664  1
  Ni  Ni6  1  0.75000000  0.20876647  0.91611664  1
  Ni  Ni7  1  0.25000000  0.79123353  0.08388336  1
  Sn  Sn8  1  0.75000000  0.80176978  0.91292271  1
  Sn  Sn9  1  0.25000000  0.19823022  0.08707729  1
  Sn  Sn10  1  0.75000000  0.30176978  0.58707729  1
  Sn  Sn11  1  0.25000000  0.69823022  0.41292271  1
