# generated using pymatgen
data_ZrNi
_symmetry_space_group_name_H-M   'P 1'
_cell_length_a   3.30568916
_cell_length_b   4.08555919
_cell_length_c   5.25112111
_cell_angle_alpha   90.00000000
_cell_angle_beta   108.34634517
_cell_angle_gamma   90.00000000
_symmetry_Int_Tables_number   1
_chemical_formula_structural   ZrNi
_chemical_formula_sum   'Zr2 Ni2'
_cell_volume   67.31472890
_cell_formula_units_Z   2
loop_
 _symmetry_equiv_pos_site_id
 _symmetry_equiv_pos_as_xyz
  1  'x, y, z'
loop_
 _atom_site_type_symbol
 _atom_site_label
 _atom_site_symmetry_multiplicity
 _atom_site_fract_x
 _atom_site_fract_y
 _atom_site_fract_z
 _atom_site_occupancy
  Ni  Ni0  1  0.91725421  0.25000000  0.83450842  1
  Ni  Ni1  1  0.08274579  0.75000000  0.16549158  1
  Zr  Zr2  1  0.63943375  0.25000000  0.27886751  1
  Zr  Zr3  1  0.36056625  0.75000000  0.72113249  1
