# generated using pymatgen
data_Ba(BiPd)2
_symmetry_space_group_name_H-M   'P 1'
_cell_length_a   4.93026927
_cell_length_b   5.00686529
_cell_length_c   11.07051657
_cell_angle_alpha   91.48975267
_cell_angle_beta   90.00000000
_cell_angle_gamma   90.00000000
_symmetry_Int_Tables_number   1
_chemical_formula_structural   Ba(BiPd)2
_chemical_formula_sum   'Ba2 Bi4 Pd4'
_cell_volume   273.18547982
_cell_formula_units_Z   2
loop_
 _symmetry_equiv_pos_site_id
 _symmetry_equiv_pos_as_xyz
  1  'x, y, z'
loop_
 _atom_site_type_symbol
 _atom_site_label
 _atom_site_symmetry_multiplicity
 _atom_site_fract_x
 _atom_site_fract_y
 _atom_site_fract_z
 _atom_site_occupancy
  Ba  Ba0  1  0.75000000  0.74200513  0.24107788  1
  Ba  Ba1  1  0.25000000  0.25799487  0.75892212  1
  Bi  Bi2  1  0.75000000  0.78636431  0.88144591  1
  Bi  Bi3  1  0.25000000  0.75115848  0.49908855  1
  Bi  Bi4  1  0.75000000  0.24884152  0.50091145  1
  Bi  Bi5  1  0.25000000  0.21363569  0.11855409  1
  Pd  Pd6  1  0.25000000  0.24666739  0.37342406  1
  Pd  Pd7  1  0.25000000  0.69630282  0.99919708  1
  Pd  Pd8  1  0.75000000  0.75333261  0.62657594  1
  Pd  Pd9  1  0.75000000  0.30369718  0.00080292  1
