# generated using pymatgen
data_Ti5Si4
_symmetry_space_group_name_H-M   'P 1'
_cell_length_a   6.70858491
_cell_length_b   6.70858491
_cell_length_c   12.19884323
_cell_angle_alpha   90.00000000
_cell_angle_beta   90.00000000
_cell_angle_gamma   90.00000000
_symmetry_Int_Tables_number   1
_chemical_formula_structural   Ti5Si4
_chemical_formula_sum   'Ti20 Si16'
_cell_volume   549.01029967
_cell_formula_units_Z   4
loop_
 _symmetry_equiv_pos_site_id
 _symmetry_equiv_pos_as_xyz
  1  'x, y, z'
loop_
 _atom_site_type_symbol
 _atom_site_label
 _atom_site_symmetry_multiplicity
 _atom_site_fract_x
 _atom_site_fract_y
 _atom_site_fract_z
 _atom_site_occupancy
  Ti  Ti0  1  0.99607577  0.14849328  0.62207366  1
  Ti  Ti1  1  0.35150672  0.49607577  0.87207366  1
  Ti  Ti2  1  0.64849328  0.50392423  0.37207366  1
  Ti  Ti3  1  0.49607577  0.35150672  0.12792634  1
  Ti  Ti4  1  0.50392423  0.64849328  0.62792634  1
  Ti  Ti5  1  0.00392423  0.85150672  0.12207366  1
  Ti  Ti6  1  0.14849328  0.99607577  0.37792634  1
  Ti  Ti7  1  0.85150672  0.00392423  0.87792634  1
  Ti  Ti8  1  0.00157379  0.34651522  0.21804301  1
  Ti  Ti9  1  0.15348478  0.50157379  0.46804301  1
  Ti  Ti10  1  0.84651522  0.49842621  0.96804301  1
  Ti  Ti11  1  0.50157379  0.15348478  0.53195699  1
  Ti  Ti12  1  0.49842621  0.84651522  0.03195699  1
  Ti  Ti13  1  0.99842621  0.65348478  0.71804301  1
  Ti  Ti14  1  0.34651522  0.00157379  0.78195699  1
  Ti  Ti15  1  0.65348478  0.99842621  0.28195699  1
  Ti  Ti16  1  0.17173771  0.17173771  0.00000000  1
  Ti  Ti17  1  0.32826229  0.67173771  0.25000000  1
  Ti  Ti18  1  0.67173771  0.32826229  0.75000000  1
  Ti  Ti19  1  0.82826229  0.82826229  0.50000000  1
  Si  Si20  1  0.04517097  0.30108038  0.81345687  1
  Si  Si21  1  0.19891962  0.54517097  0.06345687  1
  Si  Si22  1  0.80108038  0.45482903  0.56345687  1
  Si  Si23  1  0.54517097  0.19891962  0.93654313  1
  Si  Si24  1  0.45482903  0.80108038  0.43654313  1
  Si  Si25  1  0.95482903  0.69891962  0.31345687  1
  Si  Si26  1  0.30108038  0.04517097  0.18654313  1
  Si  Si27  1  0.69891962  0.95482903  0.68654313  1
  Si  Si28  1  0.29542578  0.35607101  0.67286685  1
  Si  Si29  1  0.14392899  0.79542578  0.92286685  1
  Si  Si30  1  0.85607101  0.20457422  0.42286685  1
  Si  Si31  1  0.79542578  0.14392899  0.07713315  1
  Si  Si32  1  0.20457422  0.85607101  0.57713315  1
  Si  Si33  1  0.70457422  0.64392899  0.17286685  1
  Si  Si34  1  0.35607101  0.29542578  0.32713315  1
  Si  Si35  1  0.64392899  0.70457422  0.82713315  1
