# generated using pymatgen
data_Ca5Au4
_symmetry_space_group_name_H-M   'P 1'
_cell_length_a   7.80527687
_cell_length_b   8.13152620
_cell_length_c   8.09910973
_cell_angle_alpha   90.00000000
_cell_angle_beta   109.24494861
_cell_angle_gamma   90.00000000
_symmetry_Int_Tables_number   1
_chemical_formula_structural   Ca5Au4
_chemical_formula_sum   'Ca10 Au8'
_cell_volume   485.31529369
_cell_formula_units_Z   2
loop_
 _symmetry_equiv_pos_site_id
 _symmetry_equiv_pos_as_xyz
  1  'x, y, z'
loop_
 _atom_site_type_symbol
 _atom_site_label
 _atom_site_symmetry_multiplicity
 _atom_site_fract_x
 _atom_site_fract_y
 _atom_site_fract_z
 _atom_site_occupancy
  Ca  Ca0  1  0.06894856  0.32118628  0.69221268  1
  Ca  Ca1  1  0.56894856  0.17881372  0.69221268  1
  Ca  Ca2  1  0.43105144  0.82118628  0.30778732  1
  Ca  Ca3  1  0.25240763  0.33034683  0.25580201  1
  Ca  Ca4  1  0.00000000  0.00000000  0.00000000  1
  Ca  Ca5  1  0.93105144  0.67881372  0.30778732  1
  Ca  Ca6  1  0.24759237  0.83034683  0.74419799  1
  Ca  Ca7  1  0.75240763  0.16965317  0.25580201  1
  Ca  Ca8  1  0.74759237  0.66965317  0.74419799  1
  Ca  Ca9  1  0.50000000  0.50000000  0.00000000  1
  Au  Au10  1  0.62995960  0.86803086  0.01233370  1
  Au  Au11  1  0.85553992  0.96710581  0.58253121  1
  Au  Au12  1  0.37004040  0.13196914  0.98766630  1
  Au  Au13  1  0.35553992  0.53289419  0.58253121  1
  Au  Au14  1  0.87004040  0.36803086  0.98766630  1
  Au  Au15  1  0.64446008  0.46710581  0.41746879  1
  Au  Au16  1  0.14446008  0.03289419  0.41746879  1
  Au  Au17  1  0.12995960  0.63196914  0.01233370  1
