# generated using pymatgen
data_CuS
_symmetry_space_group_name_H-M   'P 1'
_cell_length_a   3.79656992
_cell_length_b   3.79656992
_cell_length_c   16.44066154
_cell_angle_alpha   90.00000000
_cell_angle_beta   90.00000000
_cell_angle_gamma   119.99999998
_symmetry_Int_Tables_number   1
_chemical_formula_structural   CuS
_chemical_formula_sum   'Cu6 S6'
_cell_volume   205.22616313
_cell_formula_units_Z   6
loop_
 _symmetry_equiv_pos_site_id
 _symmetry_equiv_pos_as_xyz
  1  'x, y, z'
loop_
 _atom_site_type_symbol
 _atom_site_label
 _atom_site_symmetry_multiplicity
 _atom_site_fract_x
 _atom_site_fract_y
 _atom_site_fract_z
 _atom_site_occupancy
  S  S0  1  0.00000000  0.00000000  0.43591257  1
  S  S1  1  0.00000000  0.00000000  0.93591257  1
  S  S2  1  0.00000000  0.00000000  0.56408743  1
  S  S3  1  0.00000000  0.00000000  0.06408743  1
  S  S4  1  0.66666667  0.33333333  0.75000000  1
  S  S5  1  0.33333333  0.66666667  0.25000000  1
  Cu  Cu6  1  0.33333333  0.66666667  0.39294740  1
  Cu  Cu7  1  0.66666667  0.33333333  0.89294740  1
  Cu  Cu8  1  0.66666667  0.33333333  0.60705260  1
  Cu  Cu9  1  0.33333333  0.66666667  0.10705260  1
  Cu  Cu10  1  0.66666667  0.33333333  0.25000000  1
  Cu  Cu11  1  0.33333333  0.66666667  0.75000000  1
