# generated using pymatgen
data_Nb2C
_symmetry_space_group_name_H-M   'P 1'
_cell_length_a   3.10692583
_cell_length_b   4.99959803
_cell_length_c   11.02333156
_cell_angle_alpha   90.00000000
_cell_angle_beta   90.00000000
_cell_angle_gamma   90.00000000
_symmetry_Int_Tables_number   1
_chemical_formula_structural   Nb2C
_chemical_formula_sum   'Nb8 C4'
_cell_volume   171.22960084
_cell_formula_units_Z   4
loop_
 _symmetry_equiv_pos_site_id
 _symmetry_equiv_pos_as_xyz
  1  'x, y, z'
loop_
 _atom_site_type_symbol
 _atom_site_label
 _atom_site_symmetry_multiplicity
 _atom_site_fract_x
 _atom_site_fract_y
 _atom_site_fract_z
 _atom_site_occupancy
  Nb  Nb0  1  0.00000000  0.73408454  0.29663243  1
  Nb  Nb1  1  0.50000000  0.26591546  0.70336757  1
  Nb  Nb2  1  0.50000000  0.75395202  0.54557805  1
  Nb  Nb3  1  0.00000000  0.76591546  0.79663243  1
  Nb  Nb4  1  0.50000000  0.74604798  0.04557805  1
  Nb  Nb5  1  0.00000000  0.24604798  0.45442195  1
  Nb  Nb6  1  0.00000000  0.25395202  0.95442195  1
  Nb  Nb7  1  0.50000000  0.23408454  0.20336757  1
  C  C8  1  0.50000000  0.99093233  0.37513919  1
  C  C9  1  0.00000000  0.00906767  0.62486081  1
  C  C10  1  0.50000000  0.50906767  0.87513919  1
  C  C11  1  0.00000000  0.49093233  0.12486081  1
