# generated using pymatgen
data_V3B4
_symmetry_space_group_name_H-M   'P 1'
_cell_length_a   2.98111509
_cell_length_b   3.04294982
_cell_length_c   6.94803800
_cell_angle_alpha   102.64979209
_cell_angle_beta   102.38696184
_cell_angle_gamma   89.99954169
_symmetry_Int_Tables_number   1
_chemical_formula_structural   V3B4
_chemical_formula_sum   'V3 B4'
_cell_volume   59.99381246
_cell_formula_units_Z   1
loop_
 _symmetry_equiv_pos_site_id
 _symmetry_equiv_pos_as_xyz
  1  'x, y, z'
loop_
 _atom_site_type_symbol
 _atom_site_label
 _atom_site_symmetry_multiplicity
 _atom_site_fract_x
 _atom_site_fract_y
 _atom_site_fract_z
 _atom_site_occupancy
  V  V0  1  0.50000000  0.00000000  0.00000000  1
  V  V1  1  0.18746048  0.18746114  0.37493348  1
  V  V2  1  0.81253952  0.81253886  0.62506652  1
  B  B3  1  0.63642442  0.63641247  0.27284235  1
  B  B4  1  0.36357558  0.36358753  0.72715765  1
  B  B5  1  0.06553346  0.56554533  0.13108919  1
  B  B6  1  0.93446654  0.43445467  0.86891081  1
