# generated using pymatgen
data_In5Se5Br
_symmetry_space_group_name_H-M   'P 1'
_cell_length_a   4.17619155
_cell_length_b   9.52227859
_cell_length_c   15.59520046
_cell_angle_alpha   90.00000000
_cell_angle_beta   90.00000000
_cell_angle_gamma   90.00000000
_symmetry_Int_Tables_number   1
_chemical_formula_structural   In5Se5Br
_chemical_formula_sum   'In10 Se10 Br2'
_cell_volume   620.17214376
_cell_formula_units_Z   2
loop_
 _symmetry_equiv_pos_site_id
 _symmetry_equiv_pos_as_xyz
  1  'x, y, z'
loop_
 _atom_site_type_symbol
 _atom_site_label
 _atom_site_symmetry_multiplicity
 _atom_site_fract_x
 _atom_site_fract_y
 _atom_site_fract_z
 _atom_site_occupancy
  In  In0  1  0.00000000  0.89365566  0.40533111  1
  In  In1  1  0.50000000  0.10634434  0.90533111  1
  In  In2  1  0.50000000  0.60543967  0.52318858  1
  In  In3  1  0.00000000  0.39456033  0.02318858  1
  In  In4  1  0.50000000  0.19284873  0.30369715  1
  In  In5  1  0.00000000  0.80715127  0.80369715  1
  In  In6  1  0.50000000  0.47800761  0.25404773  1
  In  In7  1  0.00000000  0.52199239  0.75404773  1
  In  In8  1  0.50000000  0.85410107  0.11063504  1
  In  In9  1  0.00000000  0.14589893  0.61063504  1
  Br  Br10  1  0.00000000  0.40852590  0.45690668  1
  Br  Br11  1  0.50000000  0.59147410  0.95690668  1
  Se  Se12  1  0.50000000  0.70588461  0.35920603  1
  Se  Se13  1  0.00000000  0.29411539  0.85920603  1
  Se  Se14  1  0.50000000  0.42681506  0.65904459  1
  Se  Se15  1  0.00000000  0.57318494  0.15904459  1
  Se  Se16  1  0.00000000  0.77373617  0.56783614  1
  Se  Se17  1  0.50000000  0.22626383  0.06783614  1
  Se  Se18  1  0.50000000  0.07061677  0.45955545  1
  Se  Se19  1  0.00000000  0.92938323  0.95955545  1
  Se  Se20  1  0.00000000  0.03336499  0.24947150  1
  Se  Se21  1  0.50000000  0.96663501  0.74947150  1
