# generated using pymatgen
data_Fe3C
_symmetry_space_group_name_H-M   'P 1'
_cell_length_a   4.49084468
_cell_length_b   5.03018045
_cell_length_c   6.73930730
_cell_angle_alpha   90.00000000
_cell_angle_beta   90.00000000
_cell_angle_gamma   90.00000000
_symmetry_Int_Tables_number   1
_chemical_formula_structural   Fe3C
_chemical_formula_sum   'Fe12 C4'
_cell_volume   152.23932850
_cell_formula_units_Z   4
loop_
 _symmetry_equiv_pos_site_id
 _symmetry_equiv_pos_as_xyz
  1  'x, y, z'
loop_
 _atom_site_type_symbol
 _atom_site_label
 _atom_site_symmetry_multiplicity
 _atom_site_fract_x
 _atom_site_fract_y
 _atom_site_fract_z
 _atom_site_occupancy
  Fe  Fe0  1  0.83712027  0.03666066  0.25000000  1
  Fe  Fe1  1  0.33712027  0.46333934  0.75000000  1
  Fe  Fe2  1  0.66287973  0.53666066  0.25000000  1
  Fe  Fe3  1  0.16287973  0.96333934  0.75000000  1
  Fe  Fe4  1  0.33210145  0.17736986  0.06837444  1
  Fe  Fe5  1  0.83210145  0.32263014  0.93162556  1
  Fe  Fe6  1  0.16789855  0.67736986  0.43162556  1
  Fe  Fe7  1  0.66789855  0.82263014  0.56837444  1
  Fe  Fe8  1  0.66789855  0.82263014  0.93162556  1
  Fe  Fe9  1  0.16789855  0.67736986  0.06837444  1
  Fe  Fe10  1  0.83210145  0.32263014  0.56837444  1
  Fe  Fe11  1  0.33210145  0.17736986  0.43162556  1
  C  C12  1  0.43906792  0.87699388  0.25000000  1
  C  C13  1  0.93906792  0.62300612  0.75000000  1
  C  C14  1  0.06093208  0.37699388  0.25000000  1
  C  C15  1  0.56093208  0.12300612  0.75000000  1
