# generated using pymatgen
data_Hg2AsF6
_symmetry_space_group_name_H-M   'P 1'
_cell_length_a   5.57650277
_cell_length_b   10.19526309
_cell_length_c   11.87173115
_cell_angle_alpha   90.00000000
_cell_angle_beta   90.00000000
_cell_angle_gamma   92.02623214
_symmetry_Int_Tables_number   1
_chemical_formula_structural   Hg2AsF6
_chemical_formula_sum   'Hg8 As4 F24'
_cell_volume   674.53234924
_cell_formula_units_Z   4
loop_
 _symmetry_equiv_pos_site_id
 _symmetry_equiv_pos_as_xyz
  1  'x, y, z'
loop_
 _atom_site_type_symbol
 _atom_site_label
 _atom_site_symmetry_multiplicity
 _atom_site_fract_x
 _atom_site_fract_y
 _atom_site_fract_z
 _atom_site_occupancy
  Hg  Hg0  1  0.99769763  0.60994960  0.91775333  1
  Hg  Hg1  1  0.00230237  0.89005040  0.41775333  1
  Hg  Hg2  1  0.00230237  0.39005040  0.08224667  1
  Hg  Hg3  1  0.99769763  0.10994960  0.58224667  1
  Hg  Hg4  1  0.00092025  0.87086418  0.97619175  1
  Hg  Hg5  1  0.99907975  0.62913582  0.47619175  1
  Hg  Hg6  1  0.99907975  0.12913582  0.02380825  1
  Hg  Hg7  1  0.00092025  0.37086418  0.52380825  1
  As  As8  1  0.49852989  0.82772717  0.70480975  1
  As  As9  1  0.50147011  0.67227283  0.20480975  1
  As  As10  1  0.50147011  0.17227283  0.29519025  1
  As  As11  1  0.49852989  0.32772717  0.79519025  1
  F  F12  1  0.23879141  0.72358685  0.68693955  1
  F  F13  1  0.76120859  0.77641315  0.18693955  1
  F  F14  1  0.76120859  0.27641315  0.31306045  1
  F  F15  1  0.23879141  0.22358685  0.81306045  1
  F  F16  1  0.76007968  0.93193174  0.72404923  1
  F  F17  1  0.23992032  0.56806826  0.22404923  1
  F  F18  1  0.23992032  0.06806826  0.27595077  1
  F  F19  1  0.76007968  0.43193174  0.77595077  1
  F  F20  1  0.31103315  0.96178245  0.73028293  1
  F  F21  1  0.68896685  0.53821755  0.23028293  1
  F  F22  1  0.68896685  0.03821755  0.26971707  1
  F  F23  1  0.31103315  0.46178245  0.76971707  1
  F  F24  1  0.68546273  0.69385393  0.67966032  1
  F  F25  1  0.31453727  0.80614607  0.17966032  1
  F  F26  1  0.31453727  0.30614607  0.32033968  1
  F  F27  1  0.68546273  0.19385393  0.82033968  1
  F  F28  1  0.49928782  0.79301442  0.85168541  1
  F  F29  1  0.50071218  0.70698558  0.35168541  1
  F  F30  1  0.50071218  0.20698558  0.14831459  1
  F  F31  1  0.49928782  0.29301442  0.64831459  1
  F  F32  1  0.49975727  0.86529379  0.55908305  1
  F  F33  1  0.50024273  0.63470621  0.05908305  1
  F  F34  1  0.50024273  0.13470621  0.44091695  1
  F  F35  1  0.49975727  0.36529379  0.94091695  1
