# generated using pymatgen
data_NbSe2
_symmetry_space_group_name_H-M   'P 1'
_cell_length_a   3.49317413
_cell_length_b   3.49317378
_cell_length_c   28.21533398
_cell_angle_alpha   90.00000000
_cell_angle_beta   90.00000000
_cell_angle_gamma   120.00000340
_symmetry_Int_Tables_number   1
_chemical_formula_structural   NbSe2
_chemical_formula_sum   'Nb4 Se8'
_cell_volume   298.16470918
_cell_formula_units_Z   4
loop_
 _symmetry_equiv_pos_site_id
 _symmetry_equiv_pos_as_xyz
  1  'x, y, z'
loop_
 _atom_site_type_symbol
 _atom_site_label
 _atom_site_symmetry_multiplicity
 _atom_site_fract_x
 _atom_site_fract_y
 _atom_site_fract_z
 _atom_site_occupancy
  Nb  Nb0  1  0.00000000  0.00000000  0.00000000  1
  Nb  Nb1  1  0.00000000  0.00000000  0.25029122  1
  Nb  Nb2  1  0.33333300  0.66666700  0.50000000  1
  Nb  Nb3  1  0.00000000  0.00000000  0.74970878  1
  Se  Se4  1  0.33333300  0.66666700  0.94030466  1
  Se  Se5  1  0.66666700  0.33333300  0.68989894  1
  Se  Se6  1  0.66666700  0.33333300  0.31010106  1
  Se  Se7  1  0.33333300  0.66666700  0.05969534  1
  Se  Se8  1  0.66666700  0.33333300  0.80940573  1
  Se  Se9  1  0.66666700  0.33333300  0.19059427  1
  Se  Se10  1  0.00000000  0.00000000  0.44025424  1
  Se  Se11  1  0.00000000  0.00000000  0.55974576  1
