# generated using pymatgen
data_BaTiO3
_symmetry_space_group_name_H-M   'P 1'
_cell_length_a   3.98753058
_cell_length_b   4.12278807
_cell_length_c   4.12278806
_cell_angle_alpha   90.48823846
_cell_angle_beta   90.00000000
_cell_angle_gamma   90.00000000
_symmetry_Int_Tables_number   1
_chemical_formula_structural   BaTiO3
_chemical_formula_sum   'Ba1 Ti1 O3'
_cell_volume   67.77511736
_cell_formula_units_Z   1
loop_
 _symmetry_equiv_pos_site_id
 _symmetry_equiv_pos_as_xyz
  1  'x, y, z'
loop_
 _atom_site_type_symbol
 _atom_site_label
 _atom_site_symmetry_multiplicity
 _atom_site_fract_x
 _atom_site_fract_y
 _atom_site_fract_z
 _atom_site_occupancy
  O  O0  1  0.50000000  0.49038811  0.02701290  1
  O  O1  1  0.50000000  0.97298710  0.50961189  1
  O  O2  1  0.00000000  0.48453153  0.51546847  1
  Ti  Ti3  1  0.50000000  0.52451426  0.47548574  1
  Ba  Ba4  1  0.00000000  0.00747900  0.99252100  1
