# generated using pymatgen
data_Ti3SiC2
_symmetry_space_group_name_H-M   'P 1'
_cell_length_a   3.07564421
_cell_length_b   3.07564421
_cell_length_c   17.73591335
_cell_angle_alpha   90.00000000
_cell_angle_beta   90.00000000
_cell_angle_gamma   120.02329980
_symmetry_Int_Tables_number   1
_chemical_formula_structural   Ti3SiC2
_chemical_formula_sum   'Ti6 Si2 C4'
_cell_volume   145.26278533
_cell_formula_units_Z   2
loop_
 _symmetry_equiv_pos_site_id
 _symmetry_equiv_pos_as_xyz
  1  'x, y, z'
loop_
 _atom_site_type_symbol
 _atom_site_label
 _atom_site_symmetry_multiplicity
 _atom_site_fract_x
 _atom_site_fract_y
 _atom_site_fract_z
 _atom_site_occupancy
  Ti  Ti0  1  0.00000000  0.00000000  0.50000000  1
  Ti  Ti1  1  0.00000000  0.00000000  0.00000000  1
  Ti  Ti2  1  0.33328850  0.66671150  0.63489136  1
  Ti  Ti3  1  0.66671150  0.33328850  0.36510864  1
  Ti  Ti4  1  0.66671150  0.33328850  0.13489136  1
  Ti  Ti5  1  0.33328850  0.66671150  0.86510864  1
  Si  Si6  1  0.00001315  0.99998685  0.75000000  1
  Si  Si7  1  0.99998685  0.00001315  0.25000000  1
  C  C8  1  0.33332334  0.66667666  0.07229368  1
  C  C9  1  0.66667666  0.33332334  0.92770632  1
  C  C10  1  0.66667666  0.33332334  0.57229368  1
  C  C11  1  0.33332334  0.66667666  0.42770632  1
