# generated using pymatgen
data_Mg3Ir
_symmetry_space_group_name_H-M   'P 1'
_cell_length_a   7.92563567
_cell_length_b   7.92563535
_cell_length_c   8.25584672
_cell_angle_alpha   90.00000000
_cell_angle_beta   90.00000000
_cell_angle_gamma   120.00000137
_symmetry_Int_Tables_number   1
_chemical_formula_structural   Mg3Ir
_chemical_formula_sum   'Mg18 Ir6'
_cell_volume   449.11797639
_cell_formula_units_Z   6
loop_
 _symmetry_equiv_pos_site_id
 _symmetry_equiv_pos_as_xyz
  1  'x, y, z'
loop_
 _atom_site_type_symbol
 _atom_site_label
 _atom_site_symmetry_multiplicity
 _atom_site_fract_x
 _atom_site_fract_y
 _atom_site_fract_z
 _atom_site_occupancy
  Mg  Mg0  1  0.37117082  0.00000000  0.91206005  1
  Mg  Mg1  1  0.33333300  0.66666700  0.69640376  1
  Mg  Mg2  1  0.00000000  0.00000000  0.80529999  1
  Mg  Mg3  1  1.00000000  0.37117082  0.91206005  1
  Mg  Mg4  1  0.66666700  0.33333300  0.19640376  1
  Mg  Mg5  1  0.71392919  0.00000000  0.07134414  1
  Mg  Mg6  1  0.62882918  0.62882918  0.91206005  1
  Mg  Mg7  1  0.33333300  0.66666700  0.19640376  1
  Mg  Mg8  1  0.37117082  0.37117082  0.41206005  1
  Mg  Mg9  1  0.28607081  0.00000000  0.57134414  1
  Mg  Mg10  1  0.62882918  0.00000000  0.41206005  1
  Mg  Mg11  1  0.28607081  0.28607081  0.07134414  1
  Mg  Mg12  1  0.00000000  0.71392919  0.07134414  1
  Mg  Mg13  1  1.00000000  0.28607081  0.57134414  1
  Mg  Mg14  1  0.71392919  0.71392919  0.57134414  1
  Mg  Mg15  1  0.00000000  0.62882918  0.41206005  1
  Mg  Mg16  1  0.00000000  0.00000000  0.30529999  1
  Mg  Mg17  1  0.66666700  0.33333300  0.69640376  1
  Ir  Ir18  1  0.32836979  0.32836979  0.74152663  1
  Ir  Ir19  1  0.67163021  0.67163021  0.24152663  1
  Ir  Ir20  1  0.32836979  0.00000000  0.24152663  1
  Ir  Ir21  1  0.67163021  0.00000000  0.74152663  1
  Ir  Ir22  1  0.00000000  0.67163021  0.74152663  1
  Ir  Ir23  1  1.00000000  0.32836979  0.24152663  1
