# generated using pymatgen
data_Bi2Pd
_symmetry_space_group_name_H-M   'P 1'
_cell_length_a   4.34016636
_cell_length_b   5.72834451
_cell_length_c   6.82069454
_cell_angle_alpha   101.98613204
_cell_angle_beta   108.47843628
_cell_angle_gamma   89.97133855
_symmetry_Int_Tables_number   1
_chemical_formula_structural   Bi2Pd
_chemical_formula_sum   'Bi4 Pd2'
_cell_volume   156.93612980
_cell_formula_units_Z   2
loop_
 _symmetry_equiv_pos_site_id
 _symmetry_equiv_pos_as_xyz
  1  'x, y, z'
loop_
 _atom_site_type_symbol
 _atom_site_label
 _atom_site_symmetry_multiplicity
 _atom_site_fract_x
 _atom_site_fract_y
 _atom_site_fract_z
 _atom_site_occupancy
  Bi  Bi0  1  0.84373645  0.68420148  0.68754490  1
  Bi  Bi1  1  0.15626355  0.31579852  0.31245510  1
  Bi  Bi2  1  0.42416716  0.20490605  0.84926058  1
  Bi  Bi3  1  0.57583284  0.79509395  0.15073942  1
  Pd  Pd4  1  0.77434746  0.16990516  0.54902903  1
  Pd  Pd5  1  0.22565254  0.83009484  0.45097097  1
