# generated using pymatgen
data_Ti3Sb
_symmetry_space_group_name_H-M   'P 1'
_cell_length_a   5.25028327
_cell_length_b   7.92632317
_cell_length_c   7.92632344
_cell_angle_alpha   83.70262710
_cell_angle_beta   70.65881408
_cell_angle_gamma   70.65880917
_symmetry_Int_Tables_number   1
_chemical_formula_structural   Ti3Sb
_chemical_formula_sum   'Ti12 Sb4'
_cell_volume   293.67583201
_cell_formula_units_Z   4
loop_
 _symmetry_equiv_pos_site_id
 _symmetry_equiv_pos_as_xyz
  1  'x, y, z'
loop_
 _atom_site_type_symbol
 _atom_site_label
 _atom_site_symmetry_multiplicity
 _atom_site_fract_x
 _atom_site_fract_y
 _atom_site_fract_z
 _atom_site_occupancy
  Ti  Ti0  1  0.57562148  0.70778604  0.14097100  1
  Ti  Ti1  1  0.71659248  0.85902900  0.70778604  1
  Ti  Ti2  1  0.28340752  0.14097100  0.29221396  1
  Ti  Ti3  1  0.07562148  0.14097100  0.70778604  1
  Ti  Ti4  1  0.75000000  0.00000000  0.00000000  1
  Ti  Ti5  1  0.78340752  0.29221396  0.14097100  1
  Ti  Ti6  1  0.42437852  0.29221396  0.85902900  1
  Ti  Ti7  1  0.25000000  0.00000000  0.00000000  1
  Ti  Ti8  1  0.21659248  0.70778604  0.85902900  1
  Ti  Ti9  1  0.92437852  0.85902900  0.29221396  1
  Ti  Ti10  1  0.75000000  0.50000000  0.50000000  1
  Ti  Ti11  1  0.25000000  0.50000000  0.50000000  1
  Sb  Sb12  1  0.83723598  0.50000000  0.82552805  1
  Sb  Sb13  1  0.33723598  0.82552805  0.50000000  1
  Sb  Sb14  1  0.16276402  0.50000000  0.17447195  1
  Sb  Sb15  1  0.66276402  0.17447195  0.50000000  1
