# generated using pymatgen
data_CrCuS2
_symmetry_space_group_name_H-M   'P 1'
_cell_length_a   6.44923597
_cell_length_b   6.44923597
_cell_length_c   6.44923598
_cell_angle_alpha   31.70166600
_cell_angle_beta   31.70166605
_cell_angle_gamma   31.70166607
_symmetry_Int_Tables_number   1
_chemical_formula_structural   CrCuS2
_chemical_formula_sum   'Cr1 Cu1 S2'
_cell_volume   65.78329440
_cell_formula_units_Z   1
loop_
 _symmetry_equiv_pos_site_id
 _symmetry_equiv_pos_as_xyz
  1  'x, y, z'
loop_
 _atom_site_type_symbol
 _atom_site_label
 _atom_site_symmetry_multiplicity
 _atom_site_fract_x
 _atom_site_fract_y
 _atom_site_fract_z
 _atom_site_occupancy
  S  S0  1  0.74486474  0.74486474  0.74486474  1
  S  S1  1  0.26609274  0.26609274  0.26609274  1
  Cr  Cr2  1  0.99942241  0.99942241  0.99942241  1
  Cu  Cu3  1  0.14592011  0.14592011  0.14592011  1
