# generated using pymatgen
data_Ca(SiNi)2
_symmetry_space_group_name_H-M   'P 1'
_cell_length_a   3.98834289
_cell_length_b   3.98834289
_cell_length_c   5.58626126
_cell_angle_alpha   110.91470995
_cell_angle_beta   110.91470991
_cell_angle_gamma   90.00000002
_symmetry_Int_Tables_number   1
_chemical_formula_structural   Ca(SiNi)2
_chemical_formula_sum   'Ca1 Si2 Ni2'
_cell_volume   76.70493587
_cell_formula_units_Z   1
loop_
 _symmetry_equiv_pos_site_id
 _symmetry_equiv_pos_as_xyz
  1  'x, y, z'
loop_
 _atom_site_type_symbol
 _atom_site_label
 _atom_site_symmetry_multiplicity
 _atom_site_fract_x
 _atom_site_fract_y
 _atom_site_fract_z
 _atom_site_occupancy
  Si  Si0  1  0.62950159  0.62950159  0.25900317  1
  Si  Si1  1  0.37049841  0.37049841  0.74099683  1
  Ca  Ca2  1  0.00000000  0.00000000  0.00000000  1
  Ni  Ni3  1  0.25000000  0.75000000  0.50000000  1
  Ni  Ni4  1  0.75000000  0.25000000  0.50000000  1
