# generated using pymatgen
data_WO3
_symmetry_space_group_name_H-M   'P 1'
_cell_length_a   7.51056859
_cell_length_b   7.51056821
_cell_length_c   7.72915657
_cell_angle_alpha   90.00000000
_cell_angle_beta   90.00000000
_cell_angle_gamma   59.99999837
_symmetry_Int_Tables_number   1
_chemical_formula_structural   WO3
_chemical_formula_sum   'W6 O18'
_cell_volume   377.57944244
_cell_formula_units_Z   6
loop_
 _symmetry_equiv_pos_site_id
 _symmetry_equiv_pos_as_xyz
  1  'x, y, z'
loop_
 _atom_site_type_symbol
 _atom_site_label
 _atom_site_symmetry_multiplicity
 _atom_site_fract_x
 _atom_site_fract_y
 _atom_site_fract_z
 _atom_site_occupancy
  W  W0  1  0.50000000  0.50000000  0.00000000  1
  W  W1  1  0.50000000  0.00000000  0.00000000  1
  W  W2  1  0.00000000  0.50000000  0.00000000  1
  W  W3  1  0.50000000  0.50000000  0.50000000  1
  W  W4  1  0.50000000  0.00000000  0.50000000  1
  W  W5  1  0.00000000  0.50000000  0.50000000  1
  O  O6  1  0.57245748  0.21377126  0.00000000  1
  O  O7  1  0.57245453  0.21377274  0.50000000  1
  O  O8  1  0.21377126  0.57245748  0.00000000  1
  O  O9  1  0.21377274  0.57245453  0.50000000  1
  O  O10  1  0.42754252  0.78622874  0.00000000  1
  O  O11  1  0.42754547  0.78622726  0.50000000  1
  O  O12  1  0.78622874  0.78622874  0.00000000  1
  O  O13  1  0.78622726  0.78622726  0.50000000  1
  O  O14  1  0.21377126  0.21377126  0.00000000  1
  O  O15  1  0.21377274  0.21377274  0.50000000  1
  O  O16  1  0.78622874  0.42754252  0.00000000  1
  O  O17  1  0.78622726  0.42754547  0.50000000  1
  O  O18  1  0.50000000  0.00000000  0.24999966  1
  O  O19  1  0.50000000  0.00000000  0.75000034  1
  O  O20  1  0.00000000  0.50000000  0.24999966  1
  O  O21  1  0.00000000  0.50000000  0.75000034  1
  O  O22  1  0.50000000  0.50000000  0.24999966  1
  O  O23  1  0.50000000  0.50000000  0.75000034  1
