# generated using pymatgen
data_NiAs
_symmetry_space_group_name_H-M   'P 1'
_cell_length_a   5.03474754
_cell_length_b   6.30441664
_cell_length_c   6.30441664
_cell_angle_alpha   120.03865060
_cell_angle_beta   90.00000000
_cell_angle_gamma   90.00000000
_symmetry_Int_Tables_number   1
_chemical_formula_structural   NiAs
_chemical_formula_sum   'Ni6 As6'
_cell_volume   173.23229849
_cell_formula_units_Z   6
loop_
 _symmetry_equiv_pos_site_id
 _symmetry_equiv_pos_as_xyz
  1  'x, y, z'
loop_
 _atom_site_type_symbol
 _atom_site_label
 _atom_site_symmetry_multiplicity
 _atom_site_fract_x
 _atom_site_fract_y
 _atom_site_fract_z
 _atom_site_occupancy
  Ni  Ni0  1  0.99998439  0.66248643  0.32948740  1
  Ni  Ni1  1  0.49998439  0.33751357  0.67051260  1
  Ni  Ni2  1  0.49998439  0.67051260  0.33751357  1
  Ni  Ni3  1  0.99998439  0.32948740  0.66248643  1
  Ni  Ni4  1  0.49996403  0.99172102  0.99172102  1
  Ni  Ni5  1  0.99996403  0.00827898  0.00827898  1
  As  As6  1  0.75510609  0.00005354  0.66674344  1
  As  As7  1  0.25510609  0.99994646  0.33325656  1
  As  As8  1  0.25510609  0.33325656  0.99994646  1
  As  As9  1  0.75510609  0.66674344  0.00005354  1
  As  As10  1  0.24005500  0.66683928  0.66683928  1
  As  As11  1  0.74005500  0.33316072  0.33316072  1
