# generated using pymatgen
data_AlPd5
_symmetry_space_group_name_H-M   'P 1'
_cell_length_a   4.06671121
_cell_length_b   8.21577673
_cell_length_c   10.89502151
_cell_angle_alpha   90.00000000
_cell_angle_beta   90.00000000
_cell_angle_gamma   90.00000000
_symmetry_Int_Tables_number   1
_chemical_formula_structural   AlPd5
_chemical_formula_sum   'Al4 Pd20'
_cell_volume   364.01564818
_cell_formula_units_Z   4
loop_
 _symmetry_equiv_pos_site_id
 _symmetry_equiv_pos_as_xyz
  1  'x, y, z'
loop_
 _atom_site_type_symbol
 _atom_site_label
 _atom_site_symmetry_multiplicity
 _atom_site_fract_x
 _atom_site_fract_y
 _atom_site_fract_z
 _atom_site_occupancy
  Al  Al0  1  0.75000000  0.11201857  0.92162727  1
  Al  Al1  1  0.25000000  0.61201857  0.57837273  1
  Al  Al2  1  0.25000000  0.88798143  0.07837273  1
  Al  Al3  1  0.75000000  0.38798143  0.42162727  1
  Pd  Pd4  1  0.25000000  0.21894591  0.04251919  1
  Pd  Pd5  1  0.75000000  0.71430012  0.20353618  1
  Pd  Pd6  1  0.25000000  0.54389673  0.33592602  1
  Pd  Pd7  1  0.75000000  0.45610327  0.66407398  1
  Pd  Pd8  1  0.25000000  0.95610327  0.83592602  1
  Pd  Pd9  1  0.25000000  0.28569988  0.79646382  1
  Pd  Pd10  1  0.75000000  0.71894591  0.45748081  1
  Pd  Pd11  1  0.25000000  0.57206697  0.07025454  1
  Pd  Pd12  1  0.25000000  0.92793303  0.57025454  1
  Pd  Pd13  1  0.75000000  0.78569988  0.70353618  1
  Pd  Pd14  1  0.75000000  0.38413387  0.18425069  1
  Pd  Pd15  1  0.75000000  0.07206697  0.42974546  1
  Pd  Pd16  1  0.25000000  0.28105409  0.54251919  1
  Pd  Pd17  1  0.75000000  0.78105409  0.95748081  1
  Pd  Pd18  1  0.25000000  0.21430012  0.29646382  1
  Pd  Pd19  1  0.75000000  0.04389673  0.16407398  1
  Pd  Pd20  1  0.25000000  0.61586613  0.81574931  1
  Pd  Pd21  1  0.75000000  0.42793303  0.92974546  1
  Pd  Pd22  1  0.25000000  0.88413387  0.31574931  1
  Pd  Pd23  1  0.75000000  0.11586613  0.68425069  1
