# generated using pymatgen
data_Li13Si4
_symmetry_space_group_name_H-M   'P 1'
_cell_length_a   4.42073538
_cell_length_b   7.89798714
_cell_length_c   15.01154795
_cell_angle_alpha   90.00000000
_cell_angle_beta   90.00000000
_cell_angle_gamma   90.00000000
_symmetry_Int_Tables_number   1
_chemical_formula_structural   Li13Si4
_chemical_formula_sum   'Li26 Si8'
_cell_volume   524.12686336
_cell_formula_units_Z   2
loop_
 _symmetry_equiv_pos_site_id
 _symmetry_equiv_pos_as_xyz
  1  'x, y, z'
loop_
 _atom_site_type_symbol
 _atom_site_label
 _atom_site_symmetry_multiplicity
 _atom_site_fract_x
 _atom_site_fract_y
 _atom_site_fract_z
 _atom_site_occupancy
  Li  Li0  1  -0.00000000  0.76992120  0.15356190  1
  Li  Li1  1  0.00000000  0.34756231  0.52542770  1
  Li  Li2  1  0.00000000  0.15243769  0.02542770  1
  Li  Li3  1  0.50000000  0.75802488  0.40462817  1
  Li  Li4  1  -0.00000000  0.23007880  0.84643810  1
  Li  Li5  1  0.00000000  0.40472792  0.69421227  1
  Li  Li6  1  0.00000000  0.90472792  0.80578773  1
  Li  Li7  1  0.50000000  0.59012507  0.74477047  1
  Li  Li8  1  0.50000000  0.90391551  0.60552520  1
  Li  Li9  1  -0.00000000  0.73007880  0.65356190  1
  Li  Li10  1  0.50000000  0.24197512  0.59537183  1
  Li  Li11  1  0.50000000  0.25802488  0.09537183  1
  Li  Li12  1  0.50000000  0.09608449  0.39447480  1
  Li  Li13  1  0.50000000  0.74197512  0.90462817  1
  Li  Li14  1  0.50000000  0.09012507  0.75522953  1
  Li  Li15  1  -0.00000000  0.26992120  0.34643810  1
  Li  Li16  1  0.50000000  0.40987493  0.25522953  1
  Li  Li17  1  0.00000000  -0.00000000  0.50000000  1
  Li  Li18  1  0.00000000  0.09527208  0.19421227  1
  Li  Li19  1  0.50000000  0.40391551  0.89447480  1
  Li  Li20  1  0.00000000  0.65243869  0.47457230  1
  Li  Li21  1  0.00000000  0.84756131  0.97457230  1
  Li  Li22  1  0.50000000  0.90987493  0.24477047  1
  Li  Li23  1  0.00000000  0.50000000  -0.00000000  1
  Li  Li24  1  0.50000000  0.59608449  0.10552520  1
  Li  Li25  1  0.00000000  0.59527208  0.30578773  1
  Si  Si26  1  0.50000000  0.92569386  0.06887382  1
  Si  Si27  1  0.00000000  0.58335643  0.83974523  1
  Si  Si28  1  0.00000000  0.41664357  0.16025477  1
  Si  Si29  1  0.50000000  0.57430614  0.56887382  1
  Si  Si30  1  0.00000000  0.08335643  0.66025477  1
  Si  Si31  1  0.50000000  0.42569386  0.43112618  1
  Si  Si32  1  0.50000000  0.07430614  0.93112618  1
  Si  Si33  1  0.00000000  0.91664357  0.33974523  1
