# generated using pymatgen
data_SiPt
_symmetry_space_group_name_H-M   'P 1'
_cell_length_a   3.63933265
_cell_length_b   5.65134671
_cell_length_c   5.97820567
_cell_angle_alpha   90.00000000
_cell_angle_beta   90.00000000
_cell_angle_gamma   90.00000000
_symmetry_Int_Tables_number   1
_chemical_formula_structural   SiPt
_chemical_formula_sum   'Si4 Pt4'
_cell_volume   122.95453676
_cell_formula_units_Z   4
loop_
 _symmetry_equiv_pos_site_id
 _symmetry_equiv_pos_as_xyz
  1  'x, y, z'
loop_
 _atom_site_type_symbol
 _atom_site_label
 _atom_site_symmetry_multiplicity
 _atom_site_fract_x
 _atom_site_fract_y
 _atom_site_fract_z
 _atom_site_occupancy
  Si  Si0  1  0.25000000  0.67845129  0.91668731  1
  Si  Si1  1  0.75000000  0.32154871  0.08331269  1
  Si  Si2  1  0.25000000  0.17845129  0.58331269  1
  Si  Si3  1  0.75000000  0.82154871  0.41668731  1
  Pt  Pt4  1  0.25000000  0.49477237  0.30662142  1
  Pt  Pt5  1  0.75000000  0.50522763  0.69337858  1
  Pt  Pt6  1  0.25000000  0.99477237  0.19337858  1
  Pt  Pt7  1  0.75000000  0.00522763  0.80662142  1
