# generated using pymatgen
data_Ti2Cu3
_symmetry_space_group_name_H-M   'P 1'
_cell_length_a   3.14656559
_cell_length_b   3.14654126
_cell_length_c   13.98270810
_cell_angle_alpha   89.99978079
_cell_angle_beta   90.00019225
_cell_angle_gamma   90.00005153
_symmetry_Int_Tables_number   1
_chemical_formula_structural   Ti2Cu3
_chemical_formula_sum   'Ti4 Cu6'
_cell_volume   138.43997477
_cell_formula_units_Z   2
loop_
 _symmetry_equiv_pos_site_id
 _symmetry_equiv_pos_as_xyz
  1  'x, y, z'
loop_
 _atom_site_type_symbol
 _atom_site_label
 _atom_site_symmetry_multiplicity
 _atom_site_fract_x
 _atom_site_fract_y
 _atom_site_fract_z
 _atom_site_occupancy
  Ti  Ti0  1  0.24999892  0.25000115  0.43952832  1
  Ti  Ti1  1  0.25000127  0.25000021  0.85452352  1
  Ti  Ti2  1  0.74999925  0.74999655  0.56043437  1
  Ti  Ti3  1  0.75000281  0.74999660  0.14546928  1
  Cu  Cu4  1  0.24998222  0.25000189  0.04484069  1
  Cu  Cu5  1  0.24999986  0.25000594  0.24415949  1
  Cu  Cu6  1  0.25000294  0.24999355  0.66412147  1
  Cu  Cu7  1  0.74998694  0.74999507  0.75588788  1
  Cu  Cu8  1  0.75002137  0.75000375  0.95511686  1
  Cu  Cu9  1  0.75000442  0.75000529  0.33591813  1
