# generated using pymatgen
data_Ga2NiS4
_symmetry_space_group_name_H-M   'P 1'
_cell_length_a   3.64891639
_cell_length_b   3.64891639
_cell_length_c   12.52685593
_cell_angle_alpha   90.00000000
_cell_angle_beta   90.00000000
_cell_angle_gamma   120.00000007
_symmetry_Int_Tables_number   1
_chemical_formula_structural   Ga2NiS4
_chemical_formula_sum   'Ga2 Ni1 S4'
_cell_volume   144.44434331
_cell_formula_units_Z   1
loop_
 _symmetry_equiv_pos_site_id
 _symmetry_equiv_pos_as_xyz
  1  'x, y, z'
loop_
 _atom_site_type_symbol
 _atom_site_label
 _atom_site_symmetry_multiplicity
 _atom_site_fract_x
 _atom_site_fract_y
 _atom_site_fract_z
 _atom_site_occupancy
  S  S0  1  0.66666667  0.33333333  0.59276893  1
  S  S1  1  0.33333333  0.66666667  0.40723107  1
  S  S2  1  0.66666667  0.33333333  0.14601774  1
  S  S3  1  0.33333333  0.66666667  0.85398226  1
  Ni  Ni4  1  0.00000000  0.00000000  0.50000000  1
  Ga  Ga5  1  0.33333333  0.66666667  0.22960491  1
  Ga  Ga6  1  0.66666667  0.33333333  0.77039509  1
