# generated using pymatgen
data_V3O5
_symmetry_space_group_name_H-M   'P 1'
_cell_length_a   5.18714795
_cell_length_b   7.09940858
_cell_length_c   10.02708649
_cell_angle_alpha   109.24189219
_cell_angle_beta   90.00000000
_cell_angle_gamma   90.00000000
_symmetry_Int_Tables_number   1
_chemical_formula_structural   V3O5
_chemical_formula_sum   'V12 O20'
_cell_volume   348.62615905
_cell_formula_units_Z   4
loop_
 _symmetry_equiv_pos_site_id
 _symmetry_equiv_pos_as_xyz
  1  'x, y, z'
loop_
 _atom_site_type_symbol
 _atom_site_label
 _atom_site_symmetry_multiplicity
 _atom_site_fract_x
 _atom_site_fract_y
 _atom_site_fract_z
 _atom_site_occupancy
  V  V0  1  0.50138165  0.90885518  0.63214264  1
  V  V1  1  0.49861835  0.40885518  0.63214264  1
  V  V2  1  0.49861835  0.09114482  0.36785736  1
  V  V3  1  0.99644887  0.59173508  0.87070091  1
  V  V4  1  0.99644887  0.90826492  0.12929909  1
  V  V5  1  0.00355113  0.40826492  0.12929909  1
  V  V6  1  0.00355113  0.09173508  0.87070091  1
  V  V7  1  0.00000000  0.00000000  0.50000000  1
  V  V8  1  0.50138165  0.59114482  0.36785736  1
  V  V9  1  0.50000000  0.00000000  0.00000000  1
  V  V10  1  0.00000000  0.50000000  0.50000000  1
  V  V11  1  0.50000000  0.50000000  0.00000000  1
  O  O12  1  0.64789440  0.53367190  0.20007135  1
  O  O13  1  0.15947557  0.86527797  0.92301819  1
  O  O14  1  0.84052443  0.13472203  0.07698181  1
  O  O15  1  0.84042099  0.52175528  0.68500518  1
  O  O16  1  0.31197721  0.25000000  0.00000000  1
  O  O17  1  0.64960202  0.36309158  0.41975398  1
  O  O18  1  0.35039798  0.86309158  0.41975398  1
  O  O19  1  0.20740378  0.25000000  0.50000000  1
  O  O20  1  0.35210560  0.03367190  0.20007135  1
  O  O21  1  0.35210560  0.46632810  0.79992865  1
  O  O22  1  0.84042099  0.97824472  0.31499482  1
  O  O23  1  0.64789440  0.96632810  0.79992865  1
  O  O24  1  0.68802279  0.75000000  0.00000000  1
  O  O25  1  0.15957901  0.02175528  0.68500518  1
  O  O26  1  0.15957901  0.47824472  0.31499482  1
  O  O27  1  0.35039798  0.63690842  0.58024602  1
  O  O28  1  0.84052443  0.36527797  0.92301819  1
  O  O29  1  0.79259622  0.75000000  0.50000000  1
  O  O30  1  0.64960202  0.13690842  0.58024602  1
  O  O31  1  0.15947557  0.63472203  0.07698181  1
