# generated using pymatgen
data_Sr(AlSi)2
_symmetry_space_group_name_H-M   'P 1'
_cell_length_a   4.20633015
_cell_length_b   4.20633016
_cell_length_c   7.44788887
_cell_angle_alpha   90.00000000
_cell_angle_beta   90.00000000
_cell_angle_gamma   120.00000004
_symmetry_Int_Tables_number   1
_chemical_formula_structural   Sr(AlSi)2
_chemical_formula_sum   'Sr1 Al2 Si2'
_cell_volume   114.12230477
_cell_formula_units_Z   1
loop_
 _symmetry_equiv_pos_site_id
 _symmetry_equiv_pos_as_xyz
  1  'x, y, z'
loop_
 _atom_site_type_symbol
 _atom_site_label
 _atom_site_symmetry_multiplicity
 _atom_site_fract_x
 _atom_site_fract_y
 _atom_site_fract_z
 _atom_site_occupancy
  Al  Al0  1  0.66666667  0.33333333  0.37422133  1
  Al  Al1  1  0.33333333  0.66666667  0.62577867  1
  Si  Si2  1  0.66666667  0.33333333  0.72369804  1
  Si  Si3  1  0.33333333  0.66666667  0.27630196  1
  Sr  Sr4  1  0.00000000  0.00000000  0.00000000  1
