# generated using pymatgen
data_Zr4In5Co2
_symmetry_space_group_name_H-M   'P 1'
_cell_length_a   3.30616319
_cell_length_b   7.54971441
_cell_length_c   9.10430426
_cell_angle_alpha   94.89787459
_cell_angle_beta   90.00000000
_cell_angle_gamma   90.00000000
_symmetry_Int_Tables_number   1
_chemical_formula_structural   Zr4In5Co2
_chemical_formula_sum   'Zr4 In5 Co2'
_cell_volume   226.41897948
_cell_formula_units_Z   1
loop_
 _symmetry_equiv_pos_site_id
 _symmetry_equiv_pos_as_xyz
  1  'x, y, z'
loop_
 _atom_site_type_symbol
 _atom_site_label
 _atom_site_symmetry_multiplicity
 _atom_site_fract_x
 _atom_site_fract_y
 _atom_site_fract_z
 _atom_site_occupancy
  Zr  Zr0  1  0.50000000  0.20063967  0.43994215  1
  Zr  Zr1  1  0.50000000  0.81850288  0.15834812  1
  Zr  Zr2  1  0.50000000  0.79936033  0.56005785  1
  Zr  Zr3  1  0.50000000  0.18149712  0.84165188  1
  In  In4  1  0.00000000  0.45775090  0.66846966  1
  In  In5  1  0.00000000  0.84175682  0.85759768  1
  In  In6  1  0.00000000  0.50000000  0.00000000  1
  In  In7  1  0.00000000  0.15824318  0.14240232  1
  In  In8  1  0.00000000  0.54224910  0.33153034  1
  Co  Co9  1  0.00000000  0.92406730  0.36616271  1
  Co  Co10  1  0.00000000  0.07593270  0.63383729  1
