# generated using pymatgen
data_Ni3Sb
_symmetry_space_group_name_H-M   'P 1'
_cell_length_a   4.25790262
_cell_length_b   4.53196697
_cell_length_c   5.32646376
_cell_angle_alpha   90.00000000
_cell_angle_beta   90.00000000
_cell_angle_gamma   90.00000000
_symmetry_Int_Tables_number   1
_chemical_formula_structural   Ni3Sb
_chemical_formula_sum   'Ni6 Sb2'
_cell_volume   102.78303494
_cell_formula_units_Z   2
loop_
 _symmetry_equiv_pos_site_id
 _symmetry_equiv_pos_as_xyz
  1  'x, y, z'
loop_
 _atom_site_type_symbol
 _atom_site_label
 _atom_site_symmetry_multiplicity
 _atom_site_fract_x
 _atom_site_fract_y
 _atom_site_fract_z
 _atom_site_occupancy
  Ni  Ni0  1  0.75000000  0.82997121  0.00011329  1
  Ni  Ni1  1  0.75000000  0.82997121  0.49988671  1
  Ni  Ni2  1  0.25000000  0.17002879  0.99988671  1
  Ni  Ni3  1  0.25000000  0.17002879  0.50011329  1
  Ni  Ni4  1  0.25000000  0.68048424  0.75000000  1
  Ni  Ni5  1  0.75000000  0.31951576  0.25000000  1
  Sb  Sb6  1  0.75000000  0.32236785  0.75000000  1
  Sb  Sb7  1  0.25000000  0.67763215  0.25000000  1
