# generated using pymatgen
data_Y(Sn3Ru2)2
_symmetry_space_group_name_H-M   'P 1'
_cell_length_a   6.91512559
_cell_length_b   6.91512557
_cell_length_c   6.95908280
_cell_angle_alpha   119.79127254
_cell_angle_beta   119.79127248
_cell_angle_gamma   89.99999877
_symmetry_Int_Tables_number   1
_chemical_formula_structural   Y(Sn3Ru2)2
_chemical_formula_sum   'Y1 Sn6 Ru4'
_cell_volume   236.78523348
_cell_formula_units_Z   1
loop_
 _symmetry_equiv_pos_site_id
 _symmetry_equiv_pos_as_xyz
  1  'x, y, z'
loop_
 _atom_site_type_symbol
 _atom_site_label
 _atom_site_symmetry_multiplicity
 _atom_site_fract_x
 _atom_site_fract_y
 _atom_site_fract_z
 _atom_site_occupancy
  Y  Y0  1  0.00000000  0.00000000  0.00000000  1
  Sn  Sn1  1  0.53061689  0.88299605  0.41361295  1
  Sn  Sn2  1  0.88299605  0.53061689  0.41361295  1
  Sn  Sn3  1  0.11700395  0.11700395  0.58638705  1
  Sn  Sn4  1  0.50000000  0.00000000  0.00000000  1
  Sn  Sn5  1  0.46938311  0.46938311  0.58638705  1
  Sn  Sn6  1  0.00000000  0.50000000  0.00000000  1
  Ru  Ru7  1  0.59575017  0.24969945  0.84544962  1
  Ru  Ru8  1  0.40424983  0.40424983  0.15455038  1
  Ru  Ru9  1  0.24969945  0.59575017  0.84544962  1
  Ru  Ru10  1  0.75030055  0.75030055  0.15455038  1
