# generated using pymatgen
data_Sn3Ru2
_symmetry_space_group_name_H-M   'P 1'
_cell_length_a   6.25339861
_cell_length_b   6.25350745
_cell_length_c   10.03062149
_cell_angle_alpha   89.99944927
_cell_angle_beta   89.99859039
_cell_angle_gamma   89.99760965
_symmetry_Int_Tables_number   1
_chemical_formula_structural   Sn3Ru2
_chemical_formula_sum   'Sn12 Ru8'
_cell_volume   392.25422175
_cell_formula_units_Z   4
loop_
 _symmetry_equiv_pos_site_id
 _symmetry_equiv_pos_as_xyz
  1  'x, y, z'
loop_
 _atom_site_type_symbol
 _atom_site_label
 _atom_site_symmetry_multiplicity
 _atom_site_fract_x
 _atom_site_fract_y
 _atom_site_fract_z
 _atom_site_occupancy
  Sn  Sn0  1  0.22038573  0.34360477  0.08407104  1
  Sn  Sn1  1  0.34359231  0.22040552  0.41599953  1
  Sn  Sn2  1  0.34360409  0.77958324  0.91592610  1
  Sn  Sn3  1  0.65639512  0.22043585  0.91597537  1
  Sn  Sn4  1  0.22042033  0.65637251  0.58399447  1
  Sn  Sn5  1  0.82133375  0.82134271  0.75006310  1
  Sn  Sn6  1  0.65638607  0.77962466  0.41594889  1
  Sn  Sn7  1  0.17873784  0.82135557  0.25002655  1
  Sn  Sn8  1  0.82128014  0.17868137  0.24995513  1
  Sn  Sn9  1  0.77963429  0.34360897  0.58402654  1
  Sn  Sn10  1  0.77962848  0.65641650  0.08408879  1
  Sn  Sn11  1  0.17867860  0.17871364  0.74997031  1
  Ru  Ru12  1  0.49999157  -0.00001739  0.12551722  1
  Ru  Ru13  1  0.99997879  0.49998656  0.87447612  1
  Ru  Ru14  1  0.99998883  0.99997765  0.50000884  1
  Ru  Ru15  1  0.99998423  0.49998351  0.37437615  1
  Ru  Ru16  1  0.49998669  0.99994840  0.62556300  1
  Ru  Ru17  1  -0.00000938  0.00000188  0.00001897  1
  Ru  Ru18  1  0.49999834  0.49998330  0.25003658  1
  Ru  Ru19  1  0.50000417  0.49999077  0.74995729  1
