# generated using pymatgen
data_Zn7Mo
_symmetry_space_group_name_H-M   'P 1'
_cell_length_a   5.52899695
_cell_length_b   5.52899727
_cell_length_c   5.52899944
_cell_angle_alpha   59.99995947
_cell_angle_beta   59.99993735
_cell_angle_gamma   59.99993853
_symmetry_Int_Tables_number   1
_chemical_formula_structural   Zn7Mo
_chemical_formula_sum   'Zn7 Mo1'
_cell_volume   119.51536274
_cell_formula_units_Z   1
loop_
 _symmetry_equiv_pos_site_id
 _symmetry_equiv_pos_as_xyz
  1  'x, y, z'
loop_
 _atom_site_type_symbol
 _atom_site_label
 _atom_site_symmetry_multiplicity
 _atom_site_fract_x
 _atom_site_fract_y
 _atom_site_fract_z
 _atom_site_occupancy
  Zn  Zn0  1  0.49999996  0.00000001  0.00000002  1
  Zn  Zn1  1  0.49999999  0.50000000  0.00000002  1
  Zn  Zn2  1  0.49999997  0.99999999  0.50000004  1
  Zn  Zn3  1  0.00000000  0.49999995  0.50000006  1
  Zn  Zn4  1  0.99999996  1.00000000  0.50000005  1
  Zn  Zn5  1  0.99999997  0.50000000  0.00000001  1
  Zn  Zn6  1  0.50000000  0.50000005  0.49999999  1
  Mo  Mo7  1  0.00000015  1.00000000  0.99999982  1
