# generated using pymatgen
data_Sb2Te
_symmetry_space_group_name_H-M   'P 1'
_cell_length_a   4.36584393
_cell_length_b   4.36584393
_cell_length_c   17.83034645
_cell_angle_alpha   90.00000000
_cell_angle_beta   90.00000000
_cell_angle_gamma   119.99999996
_symmetry_Int_Tables_number   1
_chemical_formula_structural   Sb2Te
_chemical_formula_sum   'Sb6 Te3'
_cell_volume   294.32477874
_cell_formula_units_Z   3
loop_
 _symmetry_equiv_pos_site_id
 _symmetry_equiv_pos_as_xyz
  1  'x, y, z'
loop_
 _atom_site_type_symbol
 _atom_site_label
 _atom_site_symmetry_multiplicity
 _atom_site_fract_x
 _atom_site_fract_y
 _atom_site_fract_z
 _atom_site_occupancy
  Sb  Sb0  1  0.00000000  0.00000000  0.65195071  1
  Sb  Sb1  1  0.00000000  0.00000000  0.34804929  1
  Sb  Sb2  1  0.66666667  0.33333333  0.43449758  1
  Sb  Sb3  1  0.33333333  0.66666667  0.88942854  1
  Sb  Sb4  1  0.66666667  0.33333333  0.11057146  1
  Sb  Sb5  1  0.33333333  0.66666667  0.56550242  1
  Te  Te6  1  0.00000000  0.00000000  0.00000000  1
  Te  Te7  1  0.66666667  0.33333333  0.79402690  1
  Te  Te8  1  0.33333333  0.66666667  0.20597310  1
