# generated using pymatgen
data_ZrRh
_symmetry_space_group_name_H-M   'P 1'
_cell_length_a   4.49217589
_cell_length_b   5.35964086
_cell_length_c   6.15426530
_cell_angle_alpha   90.00000000
_cell_angle_beta   90.00000000
_cell_angle_gamma   90.00000000
_symmetry_Int_Tables_number   1
_chemical_formula_structural   ZrRh
_chemical_formula_sum   'Zr4 Rh4'
_cell_volume   148.17285740
_cell_formula_units_Z   4
loop_
 _symmetry_equiv_pos_site_id
 _symmetry_equiv_pos_as_xyz
  1  'x, y, z'
loop_
 _atom_site_type_symbol
 _atom_site_label
 _atom_site_symmetry_multiplicity
 _atom_site_fract_x
 _atom_site_fract_y
 _atom_site_fract_z
 _atom_site_occupancy
  Zr  Zr0  1  0.75000000  0.86207614  0.82593781  1
  Zr  Zr1  1  0.25000000  0.36207614  0.67406219  1
  Zr  Zr2  1  0.75000000  0.63792386  0.32593781  1
  Zr  Zr3  1  0.25000000  0.13792386  0.17406219  1
  Rh  Rh4  1  0.75000000  0.16568086  0.45063406  1
  Rh  Rh5  1  0.25000000  0.83431914  0.54936594  1
  Rh  Rh6  1  0.25000000  0.66568086  0.04936594  1
  Rh  Rh7  1  0.75000000  0.33431914  0.95063406  1
