# generated using pymatgen
data_TiSiRh
_symmetry_space_group_name_H-M   'P 1'
_cell_length_a   3.83265281
_cell_length_b   6.27602633
_cell_length_c   7.27958530
_cell_angle_alpha   89.99750992
_cell_angle_beta   89.99870254
_cell_angle_gamma   90.00045075
_symmetry_Int_Tables_number   1
_chemical_formula_structural   TiSiRh
_chemical_formula_sum   'Ti4 Si4 Rh4'
_cell_volume   175.10190680
_cell_formula_units_Z   4
loop_
 _symmetry_equiv_pos_site_id
 _symmetry_equiv_pos_as_xyz
  1  'x, y, z'
loop_
 _atom_site_type_symbol
 _atom_site_label
 _atom_site_symmetry_multiplicity
 _atom_site_fract_x
 _atom_site_fract_y
 _atom_site_fract_z
 _atom_site_occupancy
  Ti  Ti0  1  0.24999756  0.52449863  0.31752798  1
  Ti  Ti1  1  0.25000044  0.02454457  0.18249550  1
  Ti  Ti2  1  0.75000210  0.97549185  0.81748784  1
  Ti  Ti3  1  0.75000085  0.47549381  0.68246892  1
  Si  Si4  1  0.75000267  0.73156208  0.12172035  1
  Si  Si5  1  0.24999808  0.26849207  0.87827226  1
  Si  Si6  1  0.74999970  0.23153926  0.37825746  1
  Si  Si7  1  0.24999886  0.76843279  0.62171525  1
  Rh  Rh8  1  0.25000347  0.65308130  0.93634986  1
  Rh  Rh9  1  0.75000450  0.84690821  0.43633482  1
  Rh  Rh10  1  0.24999755  0.15302762  0.56369022  1
  Rh  Rh11  1  0.74999422  0.34692781  0.06367954  1
