# generated using pymatgen
data_YCuO2
_symmetry_space_group_name_H-M   'P 1'
_cell_length_a   6.08615040
_cell_length_b   6.08615040
_cell_length_c   6.08615041
_cell_angle_alpha   34.03983303
_cell_angle_beta   34.03983302
_cell_angle_gamma   34.03983303
_symmetry_Int_Tables_number   1
_chemical_formula_structural   YCuO2
_chemical_formula_sum   'Y1 Cu1 O2'
_cell_volume   62.97029630
_cell_formula_units_Z   1
loop_
 _symmetry_equiv_pos_site_id
 _symmetry_equiv_pos_as_xyz
  1  'x, y, z'
loop_
 _atom_site_type_symbol
 _atom_site_label
 _atom_site_symmetry_multiplicity
 _atom_site_fract_x
 _atom_site_fract_y
 _atom_site_fract_z
 _atom_site_occupancy
  O  O0  1  0.89352892  0.89352892  0.89352892  1
  O  O1  1  0.10647108  0.10647108  0.10647108  1
  Cu  Cu2  1  0.00000000  0.00000000  0.00000000  1
  Y  Y3  1  0.50000000  0.50000000  0.50000000  1
