# generated using pymatgen
data_SiO2
_symmetry_space_group_name_H-M   'P 1'
_cell_length_a   5.08471291
_cell_length_b   5.08471291
_cell_length_c   7.09859824
_cell_angle_alpha   90.00000000
_cell_angle_beta   90.00000000
_cell_angle_gamma   90.00000000
_symmetry_Int_Tables_number   1
_chemical_formula_structural   SiO2
_chemical_formula_sum   'Si4 O8'
_cell_volume   183.52932665
_cell_formula_units_Z   4
loop_
 _symmetry_equiv_pos_site_id
 _symmetry_equiv_pos_as_xyz
  1  'x, y, z'
loop_
 _atom_site_type_symbol
 _atom_site_label
 _atom_site_symmetry_multiplicity
 _atom_site_fract_x
 _atom_site_fract_y
 _atom_site_fract_z
 _atom_site_occupancy
  Si  Si0  1  0.70554998  0.70554998  0.50000000  1
  Si  Si1  1  0.79445002  0.20554998  0.75000000  1
  Si  Si2  1  0.20554998  0.79445002  0.25000000  1
  Si  Si3  1  0.29445002  0.29445002  0.00000000  1
  O  O4  1  0.90589682  0.75897756  0.32564117  1
  O  O5  1  0.09410318  0.24102244  0.82564117  1
  O  O6  1  0.75897756  0.90589682  0.67435883  1
  O  O7  1  0.25897656  0.59410318  0.07564117  1
  O  O8  1  0.24102244  0.09410318  0.17435883  1
  O  O9  1  0.40589682  0.74102244  0.42435883  1
  O  O10  1  0.59410318  0.25897656  0.92435883  1
  O  O11  1  0.74102244  0.40589682  0.57564117  1
