# generated using pymatgen
data_Al3Ni
_symmetry_space_group_name_H-M   'P 1'
_cell_length_a   4.80688469
_cell_length_b   6.55681598
_cell_length_c   7.29431271
_cell_angle_alpha   90.00000000
_cell_angle_beta   90.00000000
_cell_angle_gamma   90.00000000
_symmetry_Int_Tables_number   1
_chemical_formula_structural   Al3Ni
_chemical_formula_sum   'Al12 Ni4'
_cell_volume   229.90111475
_cell_formula_units_Z   4
loop_
 _symmetry_equiv_pos_site_id
 _symmetry_equiv_pos_as_xyz
  1  'x, y, z'
loop_
 _atom_site_type_symbol
 _atom_site_label
 _atom_site_symmetry_multiplicity
 _atom_site_fract_x
 _atom_site_fract_y
 _atom_site_fract_z
 _atom_site_occupancy
  Al  Al0  1  0.91517434  0.00856733  0.25000000  1
  Al  Al1  1  0.36105739  0.17143254  0.44541749  1
  Al  Al2  1  0.36105739  0.17143254  0.05458251  1
  Al  Al3  1  0.86105739  0.32856746  0.55458251  1
  Al  Al4  1  0.13894261  0.67143254  0.44541749  1
  Al  Al5  1  0.63894261  0.82856746  0.94541749  1
  Al  Al6  1  0.13894261  0.67143254  0.05458251  1
  Al  Al7  1  0.63894261  0.82856746  0.55458251  1
  Al  Al8  1  0.86105739  0.32856746  0.94541749  1
  Al  Al9  1  0.58482566  0.50856733  0.25000000  1
  Al  Al10  1  0.08482566  0.99143267  0.75000000  1
  Al  Al11  1  0.41517434  0.49143267  0.75000000  1
  Ni  Ni12  1  0.44383574  0.87125465  0.25000000  1
  Ni  Ni13  1  0.05616426  0.37125465  0.25000000  1
  Ni  Ni14  1  0.55616426  0.12874535  0.75000000  1
  Ni  Ni15  1  0.94383574  0.62874535  0.75000000  1
