# generated using pymatgen
data_FeBiO3
_symmetry_space_group_name_H-M   'P 1'
_cell_length_a   5.49434422
_cell_length_b   5.72796288
_cell_length_c   7.89490247
_cell_angle_alpha   90.00000000
_cell_angle_beta   90.00000000
_cell_angle_gamma   90.00000000
_symmetry_Int_Tables_number   1
_chemical_formula_structural   FeBiO3
_chemical_formula_sum   'Fe4 Bi4 O12'
_cell_volume   248.46363156
_cell_formula_units_Z   4
loop_
 _symmetry_equiv_pos_site_id
 _symmetry_equiv_pos_as_xyz
  1  'x, y, z'
loop_
 _atom_site_type_symbol
 _atom_site_label
 _atom_site_symmetry_multiplicity
 _atom_site_fract_x
 _atom_site_fract_y
 _atom_site_fract_z
 _atom_site_occupancy
  Fe  Fe0  1  0.50000000  0.00000000  0.50000000  1
  Fe  Fe1  1  0.50000000  0.00000000  0.00000000  1
  Fe  Fe2  1  0.00000000  0.50000000  0.50000000  1
  Fe  Fe3  1  0.00000000  0.50000000  0.00000000  1
  Bi  Bi4  1  0.48968555  0.44783296  0.75000000  1
  Bi  Bi5  1  0.98968555  0.05216704  0.25000000  1
  Bi  Bi6  1  0.51031445  0.55216704  0.25000000  1
  Bi  Bi7  1  0.01031445  0.94783296  0.75000000  1
  O  O8  1  0.40011074  0.97013806  0.25000000  1
  O  O9  1  0.30597431  0.69722342  0.54880173  1
  O  O10  1  0.19402569  0.19722342  0.95119827  1
  O  O11  1  0.59988926  0.02986194  0.75000000  1
  O  O12  1  0.69402569  0.30277658  0.04880173  1
  O  O13  1  0.80597431  0.80277658  0.45119827  1
  O  O14  1  0.90011074  0.52986194  0.75000000  1
  O  O15  1  0.30597431  0.69722342  0.95119827  1
  O  O16  1  0.69402569  0.30277658  0.45119827  1
  O  O17  1  0.19402569  0.19722342  0.54880173  1
  O  O18  1  0.80597431  0.80277658  0.04880173  1
  O  O19  1  0.09988926  0.47013806  0.25000000  1
