# generated using pymatgen
data_YInNi
_symmetry_space_group_name_H-M   'P 1'
_cell_length_a   7.52197041
_cell_length_b   7.52197026
_cell_length_c   3.76317766
_cell_angle_alpha   90.00000000
_cell_angle_beta   90.00000000
_cell_angle_gamma   120.00000062
_symmetry_Int_Tables_number   1
_chemical_formula_structural   YInNi
_chemical_formula_sum   'Y3 In3 Ni3'
_cell_volume   184.39476342
_cell_formula_units_Z   3
loop_
 _symmetry_equiv_pos_site_id
 _symmetry_equiv_pos_as_xyz
  1  'x, y, z'
loop_
 _atom_site_type_symbol
 _atom_site_label
 _atom_site_symmetry_multiplicity
 _atom_site_fract_x
 _atom_site_fract_y
 _atom_site_fract_z
 _atom_site_occupancy
  Y  Y0  1  1.00000000  0.58943895  0.50000000  1
  Y  Y1  1  0.58943895  0.00000000  0.50000000  1
  Y  Y2  1  0.41056105  0.41056105  0.50000000  1
  In  In3  1  0.00000000  0.25441394  0.00000000  1
  In  In4  1  0.25441394  0.00000000  0.00000000  1
  In  In5  1  0.74558606  0.74558606  0.00000000  1
  Ni  Ni6  1  0.00000000  0.00000000  0.50000000  1
  Ni  Ni7  1  0.66666700  0.33333300  0.00000000  1
  Ni  Ni8  1  0.33333300  0.66666700  0.00000000  1
