# generated using pymatgen
data_ScCoC2
_symmetry_space_group_name_H-M   'P 1'
_cell_length_a   3.36719705
_cell_length_b   3.36714812
_cell_length_c   7.16759555
_cell_angle_alpha   89.99975638
_cell_angle_beta   89.99975767
_cell_angle_gamma   89.99969303
_symmetry_Int_Tables_number   1
_chemical_formula_structural   ScCoC2
_chemical_formula_sum   'Sc2 Co2 C4'
_cell_volume   81.26513193
_cell_formula_units_Z   2
loop_
 _symmetry_equiv_pos_site_id
 _symmetry_equiv_pos_as_xyz
  1  'x, y, z'
loop_
 _atom_site_type_symbol
 _atom_site_label
 _atom_site_symmetry_multiplicity
 _atom_site_fract_x
 _atom_site_fract_y
 _atom_site_fract_z
 _atom_site_occupancy
  Sc  Sc0  1  0.24999833  0.25000178  0.65440061  1
  Sc  Sc1  1  0.75000192  0.75000055  0.34559887  1
  Co  Co2  1  0.25000009  0.75000312  0.00000014  1
  Co  Co3  1  0.74999772  0.24999887  0.00000099  1
  C  C4  1  0.75000177  0.74999839  0.84966477  1
  C  C5  1  0.24999411  0.24999938  0.34701346  1
  C  C6  1  0.24999855  0.25000035  0.15033544  1
  C  C7  1  0.75000752  0.74999756  0.65298571  1
