# generated using pymatgen
data_CaInPd
_symmetry_space_group_name_H-M   'P 1'
_cell_length_a   4.35555475
_cell_length_b   7.42895444
_cell_length_c   8.61585112
_cell_angle_alpha   90.00100809
_cell_angle_beta   89.99913157
_cell_angle_gamma   90.00041963
_symmetry_Int_Tables_number   1
_chemical_formula_structural   CaInPd
_chemical_formula_sum   'Ca4 In4 Pd4'
_cell_volume   278.78497117
_cell_formula_units_Z   4
loop_
 _symmetry_equiv_pos_site_id
 _symmetry_equiv_pos_as_xyz
  1  'x, y, z'
loop_
 _atom_site_type_symbol
 _atom_site_label
 _atom_site_symmetry_multiplicity
 _atom_site_fract_x
 _atom_site_fract_y
 _atom_site_fract_z
 _atom_site_occupancy
  Ca  Ca0  1  0.75000347  0.53187848  0.17747407  1
  Ca  Ca1  1  0.24999882  0.96811077  0.67746951  1
  Ca  Ca2  1  0.75000881  0.03189231  0.32253486  1
  Ca  Ca3  1  0.24998775  0.46811372  0.82252385  1
  In  In4  1  0.25000746  0.35359775  0.43768329  1
  In  In5  1  0.24999439  0.85361114  0.06231865  1
  In  In6  1  0.75000594  0.14640234  0.93768296  1
  In  In7  1  0.75000631  0.64640010  0.56231704  1
  Pd  Pd8  1  0.24998975  0.23215487  0.12888566  1
  Pd  Pd9  1  0.74999486  0.76784413  0.87111293  1
  Pd  Pd10  1  0.75000219  0.26783539  0.62888289  1
  Pd  Pd11  1  0.25000025  0.73215901  0.37111431  1
