# generated using pymatgen
data_AlPd
_symmetry_space_group_name_H-M   'P 1'
_cell_length_a   9.28156417
_cell_length_b   9.28156433
_cell_length_c   9.28156441
_cell_angle_alpha   116.44835306
_cell_angle_beta   116.44835359
_cell_angle_gamma   116.44835157
_symmetry_Int_Tables_number   1
_chemical_formula_structural   AlPd
_chemical_formula_sum   'Al13 Pd13'
_cell_volume   381.94098622
_cell_formula_units_Z   13
loop_
 _symmetry_equiv_pos_site_id
 _symmetry_equiv_pos_as_xyz
  1  'x, y, z'
loop_
 _atom_site_type_symbol
 _atom_site_label
 _atom_site_symmetry_multiplicity
 _atom_site_fract_x
 _atom_site_fract_y
 _atom_site_fract_z
 _atom_site_occupancy
  Al  Al0  1  0.34603143  0.09795010  0.05474785  1
  Al  Al1  1  0.75311816  0.15546016  0.59854011  1
  Al  Al2  1  0.15546016  0.59854011  0.75311816  1
  Al  Al3  1  0.24688184  0.84453984  0.40145989  1
  Al  Al4  1  0.84453984  0.40145989  0.24688184  1
  Al  Al5  1  0.05474785  0.34603143  0.09795010  1
  Al  Al6  1  0.90204990  0.94525215  0.65396857  1
  Al  Al7  1  0.40145989  0.24688184  0.84453984  1
  Al  Al8  1  0.94525215  0.65396857  0.90204990  1
  Al  Al9  1  0.59854011  0.75311816  0.15546016  1
  Al  Al10  1  0.09795010  0.05474785  0.34603143  1
  Al  Al11  1  0.50000000  0.50000000  0.50000000  1
  Al  Al12  1  0.65396857  0.90204990  0.94525215  1
  Pd  Pd13  1  0.59735378  0.55437458  0.84373303  1
  Pd  Pd14  1  0.40264622  0.44562542  0.15626697  1
  Pd  Pd15  1  0.65535129  0.09878229  0.25192431  1
  Pd  Pd16  1  0.90121771  0.74807569  0.34464871  1
  Pd  Pd17  1  0.09878229  0.25192431  0.65535129  1
  Pd  Pd18  1  0.34464871  0.90121771  0.74807569  1
  Pd  Pd19  1  0.15626697  0.40264622  0.44562542  1
  Pd  Pd20  1  0.44562542  0.15626697  0.40264622  1
  Pd  Pd21  1  0.25192431  0.65535129  0.09878229  1
  Pd  Pd22  1  0.74807569  0.34464871  0.90121771  1
  Pd  Pd23  1  0.55437458  0.84373303  0.59735378  1
  Pd  Pd24  1  0.00000000  0.00000000  0.00000000  1
  Pd  Pd25  1  0.84373303  0.59735378  0.55437458  1
