# generated using pymatgen
data_VSnRh2
_symmetry_space_group_name_H-M   'P 1'
_cell_length_a   5.80440768
_cell_length_b   5.80445026
_cell_length_c   7.39550619
_cell_angle_alpha   89.99996243
_cell_angle_beta   90.00000478
_cell_angle_gamma   89.99980603
_symmetry_Int_Tables_number   1
_chemical_formula_structural   VSnRh2
_chemical_formula_sum   'V4 Sn4 Rh8'
_cell_volume   249.16492521
_cell_formula_units_Z   4
loop_
 _symmetry_equiv_pos_site_id
 _symmetry_equiv_pos_as_xyz
  1  'x, y, z'
loop_
 _atom_site_type_symbol
 _atom_site_label
 _atom_site_symmetry_multiplicity
 _atom_site_fract_x
 _atom_site_fract_y
 _atom_site_fract_z
 _atom_site_occupancy
  V  V0  1  0.50000253  0.00000743  0.00000218  1
  V  V1  1  -0.00000245  0.00000734  0.49999765  1
  V  V2  1  0.50000296  0.49999231  0.49999793  1
  V  V3  1  -0.00000330  0.49999264  0.00000244  1
  Sn  Sn4  1  0.49999638  0.50000583  0.00000042  1
  Sn  Sn5  1  0.00000285  0.50000535  0.50000005  1
  Sn  Sn6  1  0.00000273  0.99999342  -0.00000001  1
  Sn  Sn7  1  0.49999774  -0.00000584  0.50000034  1
  Rh  Rh8  1  0.74998871  0.75004033  0.25003511  1
  Rh  Rh9  1  0.74999029  0.24995795  0.25003676  1
  Rh  Rh10  1  0.74999010  0.24995850  0.74996341  1
  Rh  Rh11  1  0.74999054  0.75004265  0.74996455  1
  Rh  Rh12  1  0.25001034  0.24995808  0.74996531  1
  Rh  Rh13  1  0.25000966  0.75004276  0.74996583  1
  Rh  Rh14  1  0.25001058  0.75004419  0.25003173  1
  Rh  Rh15  1  0.25001034  0.24995706  0.25003631  1
