# generated using pymatgen
data_CsPbBr3
_symmetry_space_group_name_H-M   'P 1'
_cell_length_a   6.01734030
_cell_length_b   6.01732589
_cell_length_c   6.01733596
_cell_angle_alpha   89.99991488
_cell_angle_beta   90.00002771
_cell_angle_gamma   90.00014321
_symmetry_Int_Tables_number   1
_chemical_formula_structural   CsPbBr3
_chemical_formula_sum   'Cs1 Pb1 Br3'
_cell_volume   217.87749105
_cell_formula_units_Z   1
loop_
 _symmetry_equiv_pos_site_id
 _symmetry_equiv_pos_as_xyz
  1  'x, y, z'
loop_
 _atom_site_type_symbol
 _atom_site_label
 _atom_site_symmetry_multiplicity
 _atom_site_fract_x
 _atom_site_fract_y
 _atom_site_fract_z
 _atom_site_occupancy
  Cs  Cs0  1  0.99999978  0.99999995  0.99999985  1
  Pb  Pb1  1  0.49999913  0.50000013  0.49999980  1
  Br  Br2  1  0.50000042  0.49999991  0.99999997  1
  Br  Br3  1  0.50000039  0.99999998  0.50000013  1
  Br  Br4  1  0.00000028  0.50000004  0.50000025  1
