# generated using pymatgen
data_Mg3Ru2
_symmetry_space_group_name_H-M   'P 1'
_cell_length_a   6.96458031
_cell_length_b   6.96458031
_cell_length_c   6.96458031
_cell_angle_alpha   90.00000000
_cell_angle_beta   90.00000000
_cell_angle_gamma   90.00000000
_symmetry_Int_Tables_number   1
_chemical_formula_structural   Mg3Ru2
_chemical_formula_sum   'Mg12 Ru8'
_cell_volume   337.81960678
_cell_formula_units_Z   4
loop_
 _symmetry_equiv_pos_site_id
 _symmetry_equiv_pos_as_xyz
  1  'x, y, z'
loop_
 _atom_site_type_symbol
 _atom_site_label
 _atom_site_symmetry_multiplicity
 _atom_site_fract_x
 _atom_site_fract_y
 _atom_site_fract_z
 _atom_site_occupancy
  Mg  Mg0  1  0.62500000  0.29445717  0.54445717  1
  Mg  Mg1  1  0.70554283  0.04445717  0.87500000  1
  Mg  Mg2  1  0.54445717  0.62500000  0.29445717  1
  Mg  Mg3  1  0.95554283  0.37500000  0.79445717  1
  Mg  Mg4  1  0.29445717  0.54445717  0.62500000  1
  Mg  Mg5  1  0.45554283  0.12500000  0.20554283  1
  Mg  Mg6  1  0.04445717  0.87500000  0.70554283  1
  Mg  Mg7  1  0.79445717  0.95554283  0.37500000  1
  Mg  Mg8  1  0.12500000  0.20554283  0.45554283  1
  Mg  Mg9  1  0.37500000  0.79445717  0.95554283  1
  Mg  Mg10  1  0.87500000  0.70554283  0.04445717  1
  Mg  Mg11  1  0.20554283  0.45554283  0.12500000  1
  Ru  Ru12  1  0.67571501  0.67571501  0.67571501  1
  Ru  Ru13  1  0.92571501  0.57428499  0.42571501  1
  Ru  Ru14  1  0.57428499  0.42571501  0.92571501  1
  Ru  Ru15  1  0.42571501  0.92571501  0.57428499  1
  Ru  Ru16  1  0.17571501  0.82428499  0.32428499  1
  Ru  Ru17  1  0.82428499  0.32428499  0.17571501  1
  Ru  Ru18  1  0.32428499  0.17571501  0.82428499  1
  Ru  Ru19  1  0.07428499  0.07428499  0.07428499  1
