# generated using pymatgen
data_NbPd3
_symmetry_space_group_name_H-M   'P 1'
_cell_length_a   4.91266573
_cell_length_b   5.58861043
_cell_length_c   13.81122413
_cell_angle_alpha   90.00000000
_cell_angle_beta   90.00000000
_cell_angle_gamma   90.00000000
_symmetry_Int_Tables_number   1
_chemical_formula_structural   NbPd3
_chemical_formula_sum   'Nb6 Pd18'
_cell_volume   379.18681235
_cell_formula_units_Z   6
loop_
 _symmetry_equiv_pos_site_id
 _symmetry_equiv_pos_as_xyz
  1  'x, y, z'
loop_
 _atom_site_type_symbol
 _atom_site_label
 _atom_site_symmetry_multiplicity
 _atom_site_fract_x
 _atom_site_fract_y
 _atom_site_fract_z
 _atom_site_occupancy
  Nb  Nb0  1  0.66729363  0.75000000  0.08536750  1
  Nb  Nb1  1  0.33270637  0.25000000  0.91463250  1
  Nb  Nb2  1  0.99525582  0.25000000  0.25000000  1
  Nb  Nb3  1  0.33270637  0.25000000  0.58536750  1
  Nb  Nb4  1  0.66729363  0.75000000  0.41463250  1
  Nb  Nb5  1  0.00474418  0.75000000  0.75000000  1
  Pd  Pd6  1  0.16774431  0.00088095  0.08184082  1
  Pd  Pd7  1  0.83225569  0.99911905  0.58184082  1
  Pd  Pd8  1  0.16774431  0.00088095  0.41815918  1
  Pd  Pd9  1  0.50836204  0.99879086  0.75000000  1
  Pd  Pd10  1  0.49163796  0.00120914  0.25000000  1
  Pd  Pd11  1  0.16774431  0.49911905  0.08184082  1
  Pd  Pd12  1  0.83225569  0.99911905  0.91815918  1
  Pd  Pd13  1  0.33336496  0.75000000  0.91409886  1
  Pd  Pd14  1  0.16774431  0.49911905  0.41815918  1
  Pd  Pd15  1  0.66663504  0.25000000  0.41409886  1
  Pd  Pd16  1  0.49163796  0.49879086  0.25000000  1
  Pd  Pd17  1  0.83225569  0.50088095  0.91815918  1
  Pd  Pd18  1  0.98188349  0.75000000  0.25000000  1
  Pd  Pd19  1  0.33336496  0.75000000  0.58590114  1
  Pd  Pd20  1  0.83225569  0.50088095  0.58184082  1
  Pd  Pd21  1  0.66663504  0.25000000  0.08590114  1
  Pd  Pd22  1  0.01811651  0.25000000  0.75000000  1
  Pd  Pd23  1  0.50836204  0.50120914  0.75000000  1
