# generated using pymatgen
data_Mn3Sn2
_symmetry_space_group_name_H-M   'P 1'
_cell_length_a   5.41455197
_cell_length_b   7.47931682
_cell_length_c   8.44546165
_cell_angle_alpha   89.94627059
_cell_angle_beta   89.98134791
_cell_angle_gamma   89.99557927
_symmetry_Int_Tables_number   1
_chemical_formula_structural   Mn3Sn2
_chemical_formula_sum   'Mn12 Sn8'
_cell_volume   342.01695419
_cell_formula_units_Z   4
loop_
 _symmetry_equiv_pos_site_id
 _symmetry_equiv_pos_as_xyz
  1  'x, y, z'
loop_
 _atom_site_type_symbol
 _atom_site_label
 _atom_site_symmetry_multiplicity
 _atom_site_fract_x
 _atom_site_fract_y
 _atom_site_fract_z
 _atom_site_occupancy
  Mn  Mn0  1  0.50753659  0.76838425  0.87154405  1
  Mn  Mn1  1  0.74995987  0.09301542  0.88122414  1
  Mn  Mn2  1  0.25003423  0.40690135  0.38131094  1
  Mn  Mn3  1  0.25005207  0.90659675  0.11863801  1
  Mn  Mn4  1  0.99238812  0.26840320  0.62844724  1
  Mn  Mn5  1  0.49234264  0.73162045  0.37138752  1
  Mn  Mn6  1  0.50758453  0.26844086  0.62850452  1
  Mn  Mn7  1  0.00769993  0.23154966  0.12859611  1
  Mn  Mn8  1  0.74996081  0.59330396  0.61870987  1
  Mn  Mn9  1  0.00770662  0.73164446  0.37144811  1
  Mn  Mn10  1  0.99245503  0.76838387  0.87155444  1
  Mn  Mn11  1  0.49228902  0.23154067  0.12856642  1
  Sn  Sn12  1  0.25004844  0.60054694  0.64334338  1
  Sn  Sn13  1  0.25003971  0.10047357  0.85661732  1
  Sn  Sn14  1  0.74996279  0.89933924  0.14351618  1
  Sn  Sn15  1  0.74997614  0.44227496  0.90592513  1
  Sn  Sn16  1  0.74999776  0.94197590  0.59397885  1
  Sn  Sn17  1  0.74994648  0.39952560  0.35674852  1
  Sn  Sn18  1  0.24999791  0.05786746  0.40590791  1
  Sn  Sn19  1  0.25002133  0.55821143  0.09403134  1
