# generated using pymatgen
data_TlSbS2
_symmetry_space_group_name_H-M   'P 1'
_cell_length_a   8.97620220
_cell_length_b   11.96424059
_cell_length_c   7.37080272
_cell_angle_alpha   28.14377233
_cell_angle_beta   54.53088399
_cell_angle_gamma   42.25629772
_symmetry_Int_Tables_number   1
_chemical_formula_structural   TlSbS2
_chemical_formula_sum   'Tl2 Sb2 S4'
_cell_volume   244.45254551
_cell_formula_units_Z   2
loop_
 _symmetry_equiv_pos_site_id
 _symmetry_equiv_pos_as_xyz
  1  'x, y, z'
loop_
 _atom_site_type_symbol
 _atom_site_label
 _atom_site_symmetry_multiplicity
 _atom_site_fract_x
 _atom_site_fract_y
 _atom_site_fract_z
 _atom_site_occupancy
  Tl  Tl0  1  0.00510103  0.97995259  0.02259019  1
  Tl  Tl1  1  0.74638863  0.52327621  0.96661704  1
  Sb  Sb2  1  0.46644275  0.99778815  0.99733199  1
  Sb  Sb3  1  0.28172879  0.50828753  0.99217698  1
  S  S4  1  0.09344172  0.41615087  0.53975320  1
  S  S5  1  0.65485301  0.09121347  0.44606579  1
  S  S6  1  0.50460236  0.57391173  0.44227666  1
  S  S7  1  0.24536571  0.93179944  0.54639914  1
