# generated using pymatgen
data_Al2O3
_symmetry_space_group_name_H-M   'P 1'
_cell_length_a   2.94094966
_cell_length_b   5.67051513
_cell_length_c   6.14151150
_cell_angle_alpha   103.61344192
_cell_angle_beta   103.85302330
_cell_angle_gamma   89.99999996
_symmetry_Int_Tables_number   1
_chemical_formula_structural   Al2O3
_chemical_formula_sum   'Al4 O6'
_cell_volume   96.47483662
_cell_formula_units_Z   2
loop_
 _symmetry_equiv_pos_site_id
 _symmetry_equiv_pos_as_xyz
  1  'x, y, z'
loop_
 _atom_site_type_symbol
 _atom_site_label
 _atom_site_symmetry_multiplicity
 _atom_site_fract_x
 _atom_site_fract_y
 _atom_site_fract_z
 _atom_site_occupancy
  O  O0  1  0.83979443  0.89104679  0.67958885  1
  O  O1  1  0.16020557  0.10895321  0.32041115  1
  O  O2  1  0.50497942  0.74255756  0.00995884  1
  O  O3  1  0.49502058  0.25744244  0.99004116  1
  O  O4  1  0.17360513  0.56741239  0.34721026  1
  O  O5  1  0.82639487  0.43258761  0.65278974  1
  Al  Al6  1  0.90987865  0.20438892  0.81975731  1
  Al  Al7  1  0.09012135  0.79561108  0.18024269  1
  Al  Al8  1  0.65784955  0.31677677  0.31569910  1
  Al  Al9  1  0.34215045  0.68322323  0.68430090  1
