# generated using pymatgen
data_Li(YSi)2
_symmetry_space_group_name_H-M   'P 1'
_cell_length_a   4.18712534
_cell_length_b   7.16103127
_cell_length_c   7.16103127
_cell_angle_alpha   90.00000000
_cell_angle_beta   90.00000000
_cell_angle_gamma   90.00000000
_symmetry_Int_Tables_number   1
_chemical_formula_structural   Li(YSi)2
_chemical_formula_sum   'Li2 Y4 Si4'
_cell_volume   214.71733186
_cell_formula_units_Z   2
loop_
 _symmetry_equiv_pos_site_id
 _symmetry_equiv_pos_as_xyz
  1  'x, y, z'
loop_
 _atom_site_type_symbol
 _atom_site_label
 _atom_site_symmetry_multiplicity
 _atom_site_fract_x
 _atom_site_fract_y
 _atom_site_fract_z
 _atom_site_occupancy
  Li  Li0  1  0.00000000  0.00000000  0.00000000  1
  Li  Li1  1  0.00000000  0.50000000  0.50000000  1
  Si  Si2  1  0.00000000  0.88184599  0.61815401  1
  Si  Si3  1  0.00000000  0.11815401  0.38184599  1
  Si  Si4  1  0.00000000  0.38184599  0.88184599  1
  Si  Si5  1  0.00000000  0.61815401  0.11815401  1
  Y  Y6  1  0.50000000  0.67891283  0.82108717  1
  Y  Y7  1  0.50000000  0.32108717  0.17891283  1
  Y  Y8  1  0.50000000  0.17891283  0.67891283  1
  Y  Y9  1  0.50000000  0.82108717  0.32108717  1
