# generated using pymatgen
data_Mn11Pd21
_symmetry_space_group_name_H-M   'P 1'
_cell_length_a   8.09659520
_cell_length_b   8.09660237
_cell_length_c   7.43755435
_cell_angle_alpha   90.00009573
_cell_angle_beta   90.00004936
_cell_angle_gamma   89.99998783
_symmetry_Int_Tables_number   1
_chemical_formula_structural   Mn11Pd21
_chemical_formula_sum   'Mn11 Pd21'
_cell_volume   487.56822006
_cell_formula_units_Z   1
loop_
 _symmetry_equiv_pos_site_id
 _symmetry_equiv_pos_as_xyz
  1  'x, y, z'
loop_
 _atom_site_type_symbol
 _atom_site_label
 _atom_site_symmetry_multiplicity
 _atom_site_fract_x
 _atom_site_fract_y
 _atom_site_fract_z
 _atom_site_occupancy
  Mn  Mn0  1  0.00000329  0.49999989  0.50000119  1
  Mn  Mn1  1  0.24295607  0.24295528  0.00000034  1
  Mn  Mn2  1  0.25067534  0.25067760  0.50000165  1
  Mn  Mn3  1  0.24295869  0.75704527  0.00000169  1
  Mn  Mn4  1  0.25067730  0.74932060  0.49999854  1
  Mn  Mn5  1  0.49999617  0.99999761  0.50000121  1
  Mn  Mn6  1  0.50000148  0.49999889  -0.00000022  1
  Mn  Mn7  1  0.75704277  0.24295283  0.99999889  1
  Mn  Mn8  1  0.74932461  0.25067712  0.49999983  1
  Mn  Mn9  1  0.75704418  0.75704751  -0.00000067  1
  Mn  Mn10  1  0.74932001  0.74932129  0.50000050  1
  Pd  Pd11  1  0.99999927  0.00000176  0.99999929  1
  Pd  Pd12  1  0.00000011  0.00000057  0.49999881  1
  Pd  Pd13  1  0.00000055  0.25319641  0.25703121  1
  Pd  Pd14  1  0.00000045  0.50000060  0.00000028  1
  Pd  Pd15  1  -0.00000009  0.25319647  0.74296867  1
  Pd  Pd16  1  0.99999960  0.74680305  0.25703133  1
  Pd  Pd17  1  0.00000003  0.74680358  0.74296873  1
  Pd  Pd18  1  0.25319701  0.00000005  0.25702997  1
  Pd  Pd19  1  0.25319707  0.00000094  0.74296864  1
  Pd  Pd20  1  0.25069379  0.49999975  0.24794038  1
  Pd  Pd21  1  0.25069378  0.49999967  0.75205928  1
  Pd  Pd22  1  0.50000073  0.00000126  0.00000050  1
  Pd  Pd23  1  0.49999921  0.25069304  0.24793922  1
  Pd  Pd24  1  0.50000040  0.25069312  0.75205995  1
  Pd  Pd25  1  0.49999976  0.50000106  0.50000077  1
  Pd  Pd26  1  0.49999896  0.74930726  0.24793950  1
  Pd  Pd27  1  0.49999994  0.74930711  0.75206098  1
  Pd  Pd28  1  0.74680284  0.00000032  0.25703118  1
  Pd  Pd29  1  0.74680310  0.00000032  0.74296899  1
  Pd  Pd30  1  0.74930700  0.50000016  0.24794055  1
  Pd  Pd31  1  0.74930659  0.49999962  0.75205883  1
