# generated using pymatgen
data_NbPSe
_symmetry_space_group_name_H-M   'P 1'
_cell_length_a   3.47928957
_cell_length_b   4.86044627
_cell_length_c   6.97321882
_cell_angle_alpha   110.39609005
_cell_angle_beta   104.44645612
_cell_angle_gamma   90.00000007
_symmetry_Int_Tables_number   1
_chemical_formula_structural   NbPSe
_chemical_formula_sum   'Nb2 P2 Se2'
_cell_volume   106.54327643
_cell_formula_units_Z   2
loop_
 _symmetry_equiv_pos_site_id
 _symmetry_equiv_pos_as_xyz
  1  'x, y, z'
loop_
 _atom_site_type_symbol
 _atom_site_label
 _atom_site_symmetry_multiplicity
 _atom_site_fract_x
 _atom_site_fract_y
 _atom_site_fract_z
 _atom_site_occupancy
  P  P0  1  0.50000000  0.76611679  0.00000000  1
  P  P1  1  0.50000000  0.23388321  0.00000000  1
  Se  Se2  1  0.21322910  0.21322910  0.42645819  1
  Se  Se3  1  0.78677090  0.78677090  0.57354181  1
  Nb  Nb4  1  0.88445180  0.38445180  0.76890359  1
  Nb  Nb5  1  0.11554820  0.61554820  0.23109641  1
