# generated using pymatgen
data_Cs2ZrF6
_symmetry_space_group_name_H-M   'P 1'
_cell_length_a   6.52228668
_cell_length_b   6.52228668
_cell_length_c   5.14377303
_cell_angle_alpha   90.00000000
_cell_angle_beta   90.00000000
_cell_angle_gamma   119.99999998
_symmetry_Int_Tables_number   1
_chemical_formula_structural   Cs2ZrF6
_chemical_formula_sum   'Cs2 Zr1 F6'
_cell_volume   189.50130134
_cell_formula_units_Z   1
loop_
 _symmetry_equiv_pos_site_id
 _symmetry_equiv_pos_as_xyz
  1  'x, y, z'
loop_
 _atom_site_type_symbol
 _atom_site_label
 _atom_site_symmetry_multiplicity
 _atom_site_fract_x
 _atom_site_fract_y
 _atom_site_fract_z
 _atom_site_occupancy
  F  F0  1  0.84867013  0.15132987  0.78038700  1
  F  F1  1  0.84867013  0.69734027  0.78038700  1
  F  F2  1  0.30265973  0.15132987  0.78038700  1
  F  F3  1  0.15132987  0.84867013  0.21961300  1
  F  F4  1  0.15132987  0.30265973  0.21961300  1
  F  F5  1  0.69734027  0.84867013  0.21961300  1
  Zr  Zr6  1  0.00000000  0.00000000  0.00000000  1
  Cs  Cs7  1  0.66666667  0.33333333  0.30852525  1
  Cs  Cs8  1  0.33333333  0.66666667  0.69147475  1
