# generated using pymatgen
data_Y3Pt
_symmetry_space_group_name_H-M   'P 1'
_cell_length_a   6.53440768
_cell_length_b   7.08285789
_cell_length_c   9.65012534
_cell_angle_alpha   90.00000000
_cell_angle_beta   90.00000000
_cell_angle_gamma   90.00000000
_symmetry_Int_Tables_number   1
_chemical_formula_structural   Y3Pt
_chemical_formula_sum   'Y12 Pt4'
_cell_volume   446.62981260
_cell_formula_units_Z   4
loop_
 _symmetry_equiv_pos_site_id
 _symmetry_equiv_pos_as_xyz
  1  'x, y, z'
loop_
 _atom_site_type_symbol
 _atom_site_label
 _atom_site_symmetry_multiplicity
 _atom_site_fract_x
 _atom_site_fract_y
 _atom_site_fract_z
 _atom_site_occupancy
  Y  Y0  1  0.13182821  0.02668663  0.25000000  1
  Y  Y1  1  0.63182821  0.47331337  0.75000000  1
  Y  Y2  1  0.36817179  0.52668663  0.25000000  1
  Y  Y3  1  0.86817179  0.97331337  0.75000000  1
  Y  Y4  1  0.68027552  0.17969871  0.06177095  1
  Y  Y5  1  0.18027552  0.32030129  0.93822905  1
  Y  Y6  1  0.81972448  0.67969871  0.43822905  1
  Y  Y7  1  0.31972448  0.82030129  0.56177095  1
  Y  Y8  1  0.31972448  0.82030129  0.93822905  1
  Y  Y9  1  0.81972448  0.67969871  0.06177095  1
  Y  Y10  1  0.18027552  0.32030129  0.56177095  1
  Y  Y11  1  0.68027552  0.17969871  0.43822905  1
  Pt  Pt12  1  0.95113346  0.38877313  0.25000000  1
  Pt  Pt13  1  0.45113346  0.11122687  0.75000000  1
  Pt  Pt14  1  0.54886654  0.88877313  0.25000000  1
  Pt  Pt15  1  0.04886654  0.61122687  0.75000000  1
