# generated using pymatgen
data_AlPd
_symmetry_space_group_name_H-M   'P 1'
_cell_length_a   4.90873726
_cell_length_b   4.90873726
_cell_length_c   4.90873726
_cell_angle_alpha   90.00000000
_cell_angle_beta   90.00000000
_cell_angle_gamma   90.00000000
_symmetry_Int_Tables_number   1
_chemical_formula_structural   AlPd
_chemical_formula_sum   'Al4 Pd4'
_cell_volume   118.27946770
_cell_formula_units_Z   4
loop_
 _symmetry_equiv_pos_site_id
 _symmetry_equiv_pos_as_xyz
  1  'x, y, z'
loop_
 _atom_site_type_symbol
 _atom_site_label
 _atom_site_symmetry_multiplicity
 _atom_site_fract_x
 _atom_site_fract_y
 _atom_site_fract_z
 _atom_site_occupancy
  Al  Al0  1  0.84426344  0.84426344  0.84426344  1
  Al  Al1  1  0.65573656  0.15573656  0.34426344  1
  Al  Al2  1  0.34426344  0.65573656  0.15573656  1
  Al  Al3  1  0.15573656  0.34426344  0.65573656  1
  Pd  Pd4  1  0.14742065  0.14742065  0.14742065  1
  Pd  Pd5  1  0.35257935  0.85257935  0.64742065  1
  Pd  Pd6  1  0.64742065  0.35257935  0.85257935  1
  Pd  Pd7  1  0.85257935  0.64742065  0.35257935  1
