# generated using pymatgen
data_Nb6Co7
_symmetry_space_group_name_H-M   'P 1'
_cell_length_a   4.89768918
_cell_length_b   4.89768918
_cell_length_c   9.17238776
_cell_angle_alpha   74.51535918
_cell_angle_beta   74.51535918
_cell_angle_gamma   60.00000293
_symmetry_Int_Tables_number   1
_chemical_formula_structural   Nb6Co7
_chemical_formula_sum   'Nb6 Co7'
_cell_volume   181.26364630
_cell_formula_units_Z   1
loop_
 _symmetry_equiv_pos_site_id
 _symmetry_equiv_pos_as_xyz
  1  'x, y, z'
loop_
 _atom_site_type_symbol
 _atom_site_label
 _atom_site_symmetry_multiplicity
 _atom_site_fract_x
 _atom_site_fract_y
 _atom_site_fract_z
 _atom_site_occupancy
  Nb  Nb0  1  0.16538145  0.16538145  0.50385564  1
  Nb  Nb1  1  0.83461855  0.83461855  0.49614436  1
  Nb  Nb2  1  0.34376006  0.34376006  0.96871982  1
  Nb  Nb3  1  0.65623994  0.65623994  0.03128018  1
  Nb  Nb4  1  0.44887420  0.44887420  0.65337741  1
  Nb  Nb5  1  0.55112580  0.55112580  0.34662259  1
  Co  Co6  1  0.00000000  0.00000000  0.00000000  1
  Co  Co7  1  0.59366879  0.08921739  0.22789643  1
  Co  Co8  1  0.08921739  0.08921739  0.22789643  1
  Co  Co9  1  0.08921739  0.59366879  0.22789643  1
  Co  Co10  1  0.40633121  0.91078261  0.77210357  1
  Co  Co11  1  0.91078261  0.91078261  0.77210357  1
  Co  Co12  1  0.91078261  0.40633121  0.77210357  1
