# generated using pymatgen
data_Sr2HfO4
_symmetry_space_group_name_H-M   'P 1'
_cell_length_a   4.11572634
_cell_length_b   7.04503544
_cell_length_c   4.11572634
_cell_angle_alpha   73.01620740
_cell_angle_beta   90.00000000
_cell_angle_gamma   106.98379260
_symmetry_Int_Tables_number   1
_chemical_formula_structural   Sr2HfO4
_chemical_formula_sum   'Sr2 Hf1 O4'
_cell_volume   108.67911227
_cell_formula_units_Z   1
loop_
 _symmetry_equiv_pos_site_id
 _symmetry_equiv_pos_as_xyz
  1  'x, y, z'
loop_
 _atom_site_type_symbol
 _atom_site_label
 _atom_site_symmetry_multiplicity
 _atom_site_fract_x
 _atom_site_fract_y
 _atom_site_fract_z
 _atom_site_occupancy
  Sr  Sr0  1  0.64773357  0.29546614  0.35226643  1
  Sr  Sr1  1  0.35226643  0.70453386  0.64773357  1
  Hf  Hf2  1  0.00000000  0.00000000  0.00000000  1
  O  O3  1  0.50000000  0.00000000  0.00000000  1
  O  O4  1  0.00000000  0.00000000  0.50000000  1
  O  O5  1  0.83608030  0.67216059  0.16391970  1
  O  O6  1  0.16391970  0.32783941  0.83608030  1
