# generated using pymatgen
data_KNbO3
_symmetry_space_group_name_H-M   'P 1'
_cell_length_a   4.09003472
_cell_length_b   4.09003472
_cell_length_c   4.09003472
_cell_angle_alpha   89.79684296
_cell_angle_beta   89.79684292
_cell_angle_gamma   89.79684294
_symmetry_Int_Tables_number   1
_chemical_formula_structural   KNbO3
_chemical_formula_sum   'K1 Nb1 O3'
_cell_volume   68.41838399
_cell_formula_units_Z   1
loop_
 _symmetry_equiv_pos_site_id
 _symmetry_equiv_pos_as_xyz
  1  'x, y, z'
loop_
 _atom_site_type_symbol
 _atom_site_label
 _atom_site_symmetry_multiplicity
 _atom_site_fract_x
 _atom_site_fract_y
 _atom_site_fract_z
 _atom_site_occupancy
  O  O0  1  0.03391193  0.52977654  0.52977654  1
  O  O1  1  0.52977654  0.52977654  0.03391193  1
  O  O2  1  0.52977654  0.03391193  0.52977654  1
  K  K3  1  0.01298418  0.01298418  0.01298418  1
  Nb  Nb4  1  0.50005080  0.50005080  0.50005080  1
