# generated using pymatgen
data_HfNi3
_symmetry_space_group_name_H-M   'P 1'
_cell_length_a   5.25744623
_cell_length_b   5.25744623
_cell_length_c   7.09808623
_cell_angle_alpha   68.26325535
_cell_angle_beta   68.26325535
_cell_angle_gamma   60.00000063
_symmetry_Int_Tables_number   1
_chemical_formula_structural   HfNi3
_chemical_formula_sum   'Hf3 Ni9'
_cell_volume   153.59135492
_cell_formula_units_Z   3
loop_
 _symmetry_equiv_pos_site_id
 _symmetry_equiv_pos_as_xyz
  1  'x, y, z'
loop_
 _atom_site_type_symbol
 _atom_site_label
 _atom_site_symmetry_multiplicity
 _atom_site_fract_x
 _atom_site_fract_y
 _atom_site_fract_z
 _atom_site_occupancy
  Hf  Hf0  1  0.00000000  0.00000000  -0.00000000  1
  Hf  Hf1  1  0.21836809  0.21836809  0.34489574  1
  Hf  Hf2  1  0.78163191  0.78163191  0.65510426  1
  Ni  Ni3  1  0.50000000  0.50000000  -0.00000000  1
  Ni  Ni4  1  0.50000000  0.00000000  -0.00000000  1
  Ni  Ni5  1  0.00000000  0.50000000  -0.00000000  1
  Ni  Ni6  1  0.75598606  0.28699993  0.67001407  1
  Ni  Ni7  1  0.28699993  0.28699993  0.67001407  1
  Ni  Ni8  1  0.28699993  0.75598606  0.67001407  1
  Ni  Ni9  1  0.24401394  0.71300007  0.32998593  1
  Ni  Ni10  1  0.71300007  0.71300007  0.32998593  1
  Ni  Ni11  1  0.71300007  0.24401394  0.32998593  1
