# generated using pymatgen
data_NiMoP
_symmetry_space_group_name_H-M   'P 1'
_cell_length_a   5.85716387
_cell_length_b   5.85716387
_cell_length_c   3.74992285
_cell_angle_alpha   90.00000000
_cell_angle_beta   90.00000000
_cell_angle_gamma   119.99999994
_symmetry_Int_Tables_number   1
_chemical_formula_structural   NiMoP
_chemical_formula_sum   'Ni3 Mo3 P3'
_cell_volume   111.41090815
_cell_formula_units_Z   3
loop_
 _symmetry_equiv_pos_site_id
 _symmetry_equiv_pos_as_xyz
  1  'x, y, z'
loop_
 _atom_site_type_symbol
 _atom_site_label
 _atom_site_symmetry_multiplicity
 _atom_site_fract_x
 _atom_site_fract_y
 _atom_site_fract_z
 _atom_site_occupancy
  P  P0  1  0.00000000  0.00000000  0.50000000  1
  P  P1  1  0.66666667  0.33333333  0.00000000  1
  P  P2  1  0.33333333  0.66666667  0.00000000  1
  Ni  Ni3  1  0.74903734  0.74903734  0.00000000  1
  Ni  Ni4  1  0.25096266  0.00000000  0.00000000  1
  Ni  Ni5  1  0.00000000  0.25096266  0.00000000  1
  Mo  Mo6  1  0.00000000  0.58617357  0.50000000  1
  Mo  Mo7  1  0.58617357  0.00000000  0.50000000  1
  Mo  Mo8  1  0.41382643  0.41382643  0.50000000  1
