# generated using pymatgen
data_TiO
_symmetry_space_group_name_H-M   'P 1'
_cell_length_a   2.82646579
_cell_length_b   2.82644129
_cell_length_c   2.83785211
_cell_angle_alpha   89.99998608
_cell_angle_beta   90.00001416
_cell_angle_gamma   120.00057719
_symmetry_Int_Tables_number   1
_chemical_formula_structural   TiO
_chemical_formula_sum   'Ti1 O1'
_cell_volume   19.63367359
_cell_formula_units_Z   1
loop_
 _symmetry_equiv_pos_site_id
 _symmetry_equiv_pos_as_xyz
  1  'x, y, z'
loop_
 _atom_site_type_symbol
 _atom_site_label
 _atom_site_symmetry_multiplicity
 _atom_site_fract_x
 _atom_site_fract_y
 _atom_site_fract_z
 _atom_site_occupancy
  Ti  Ti0  1  0.66668364  0.33331589  0.99999997  1
  O  O1  1  0.00001636  0.99998411  0.50000003  1
