# generated using pymatgen
data_Li2VO2
_symmetry_space_group_name_H-M   'P 1'
_cell_length_a   3.23017152
_cell_length_b   3.23017569
_cell_length_c   5.19309919
_cell_angle_alpha   90.00003687
_cell_angle_beta   90.00009432
_cell_angle_gamma   120.00013670
_symmetry_Int_Tables_number   1
_chemical_formula_structural   Li2VO2
_chemical_formula_sum   'Li2 V1 O2'
_cell_volume   46.92544275
_cell_formula_units_Z   1
loop_
 _symmetry_equiv_pos_site_id
 _symmetry_equiv_pos_as_xyz
  1  'x, y, z'
loop_
 _atom_site_type_symbol
 _atom_site_label
 _atom_site_symmetry_multiplicity
 _atom_site_fract_x
 _atom_site_fract_y
 _atom_site_fract_z
 _atom_site_occupancy
  Li  Li0  1  0.33329128  0.66666561  0.63464700  1
  Li  Li1  1  0.66662550  0.33333294  0.36535374  1
  V  V2  1  0.99996120  0.00000101  -0.00000108  1
  O  O3  1  0.33329481  0.66666817  0.24015192  1
  O  O4  1  0.66662721  0.33333227  0.75984843  1
