# generated using pymatgen
data_Li2TiF6
_symmetry_space_group_name_H-M   'P 1'
_cell_length_a   4.72180044
_cell_length_b   4.72180044
_cell_length_c   9.06898036
_cell_angle_alpha   90.00000000
_cell_angle_beta   90.00000000
_cell_angle_gamma   90.00000000
_symmetry_Int_Tables_number   1
_chemical_formula_structural   Li2TiF6
_chemical_formula_sum   'Li4 Ti2 F12'
_cell_volume   202.19653923
_cell_formula_units_Z   2
loop_
 _symmetry_equiv_pos_site_id
 _symmetry_equiv_pos_as_xyz
  1  'x, y, z'
loop_
 _atom_site_type_symbol
 _atom_site_label
 _atom_site_symmetry_multiplicity
 _atom_site_fract_x
 _atom_site_fract_y
 _atom_site_fract_z
 _atom_site_occupancy
  Li  Li0  1  0.00000000  0.00000000  0.33839506  1
  Li  Li1  1  0.50000000  0.50000000  0.83839506  1
  Li  Li2  1  0.50000000  0.50000000  0.16160494  1
  Li  Li3  1  0.00000000  0.00000000  0.66160494  1
  F  F4  1  0.21516763  0.78483237  0.50000000  1
  F  F5  1  0.69264718  0.69264718  0.65311420  1
  F  F6  1  0.28483237  0.28483237  0.00000000  1
  F  F7  1  0.71516763  0.71516763  0.00000000  1
  F  F8  1  0.78483237  0.21516763  0.50000000  1
  F  F9  1  0.19264718  0.80735282  0.84688580  1
  F  F10  1  0.30735282  0.30735282  0.34688580  1
  F  F11  1  0.69264718  0.69264718  0.34688580  1
  F  F12  1  0.80735282  0.19264718  0.84688580  1
  F  F13  1  0.80735282  0.19264718  0.15311420  1
  F  F14  1  0.19264718  0.80735282  0.15311420  1
  F  F15  1  0.30735282  0.30735282  0.65311420  1
  Ti  Ti16  1  0.00000000  0.00000000  0.00000000  1
  Ti  Ti17  1  0.50000000  0.50000000  0.50000000  1
