# generated using pymatgen
data_LiSi
_symmetry_space_group_name_H-M   'P 1'
_cell_length_a   5.73545677
_cell_length_b   7.18516026
_cell_length_c   7.18650794
_cell_angle_alpha   80.82899431
_cell_angle_beta   66.42986848
_cell_angle_gamma   66.43165723
_symmetry_Int_Tables_number   1
_chemical_formula_structural   LiSi
_chemical_formula_sum   'Li8 Si8'
_cell_volume   248.80593334
_cell_formula_units_Z   8
loop_
 _symmetry_equiv_pos_site_id
 _symmetry_equiv_pos_as_xyz
  1  'x, y, z'
loop_
 _atom_site_type_symbol
 _atom_site_label
 _atom_site_symmetry_multiplicity
 _atom_site_fract_x
 _atom_site_fract_y
 _atom_site_fract_z
 _atom_site_occupancy
  Li  Li0  1  0.13541697  0.80440571  0.03350717  1
  Li  Li1  1  0.16888435  0.46658504  0.80439311  1
  Li  Li2  1  0.43974397  0.03350920  0.69561819  1
  Li  Li3  1  0.97339256  0.69559119  0.46651864  1
  Li  Li4  1  0.86458303  0.19559429  0.96649283  1
  Li  Li5  1  0.83111565  0.53341496  0.19560689  1
  Li  Li6  1  0.56025603  0.96649080  0.30438181  1
  Li  Li7  1  0.02660744  0.30440881  0.53348136  1
  Si  Si8  1  0.70524091  0.84197288  0.93675276  1
  Si  Si9  1  0.64193415  0.56349920  0.84181515  1
  Si  Si10  1  0.04718999  0.93655520  0.65800917  1
  Si  Si11  1  0.48372590  0.65811642  0.56354067  1
  Si  Si12  1  0.29475909  0.15802712  0.06324724  1
  Si  Si13  1  0.35806585  0.43650080  0.15818485  1
  Si  Si14  1  0.95281001  0.06344480  0.34199083  1
  Si  Si15  1  0.51627410  0.34188358  0.43645933  1
