# generated using pymatgen
data_Nb2CrSe4
_symmetry_space_group_name_H-M   'P 1'
_cell_length_a   3.53510594
_cell_length_b   6.38954161
_cell_length_c   7.08250152
_cell_angle_alpha   114.84815557
_cell_angle_beta   104.45184349
_cell_angle_gamma   90.00000001
_symmetry_Int_Tables_number   1
_chemical_formula_structural   Nb2CrSe4
_chemical_formula_sum   'Nb2 Cr1 Se4'
_cell_volume   139.56932814
_cell_formula_units_Z   1
loop_
 _symmetry_equiv_pos_site_id
 _symmetry_equiv_pos_as_xyz
  1  'x, y, z'
loop_
 _atom_site_type_symbol
 _atom_site_label
 _atom_site_symmetry_multiplicity
 _atom_site_fract_x
 _atom_site_fract_y
 _atom_site_fract_z
 _atom_site_occupancy
  Cr  Cr0  1  0.00000000  0.00000000  0.00000000  1
  Se  Se1  1  0.89968991  0.55448980  0.79937982  1
  Se  Se2  1  0.36428992  0.02363611  0.72857984  1
  Se  Se3  1  0.10031009  0.44551020  0.20062018  1
  Se  Se4  1  0.63571008  0.97636389  0.27142016  1
  Nb  Nb5  1  0.25669099  0.32103936  0.51338198  1
  Nb  Nb6  1  0.74330901  0.67896064  0.48661802  1
