# generated using pymatgen
data_GeO2
_symmetry_space_group_name_H-M   'P 1'
_cell_length_a   5.08836005
_cell_length_b   5.08836004
_cell_length_c   5.75956692
_cell_angle_alpha   90.00000000
_cell_angle_beta   90.00000000
_cell_angle_gamma   119.99999999
_symmetry_Int_Tables_number   1
_chemical_formula_structural   GeO2
_chemical_formula_sum   'Ge3 O6'
_cell_volume   129.14456331
_cell_formula_units_Z   3
loop_
 _symmetry_equiv_pos_site_id
 _symmetry_equiv_pos_as_xyz
  1  'x, y, z'
loop_
 _atom_site_type_symbol
 _atom_site_label
 _atom_site_symmetry_multiplicity
 _atom_site_fract_x
 _atom_site_fract_y
 _atom_site_fract_z
 _atom_site_occupancy
  O  O0  1  0.29818297  0.39807468  0.75847274  1
  O  O1  1  0.60192532  0.90010829  0.09180607  1
  O  O2  1  0.09989171  0.70181703  0.42513941  1
  O  O3  1  0.39807468  0.29818297  0.24152726  1
  O  O4  1  0.70181703  0.09989171  0.57486059  1
  O  O5  1  0.90010829  0.60192532  0.90819393  1
  Ge  Ge6  1  0.54461688  0.54461688  0.00000000  1
  Ge  Ge7  1  0.00000000  0.45538312  0.66666667  1
  Ge  Ge8  1  0.45538312  0.00000000  0.33333333  1
