# generated using pymatgen
data_TiP
_symmetry_space_group_name_H-M   'P 1'
_cell_length_a   3.49595235
_cell_length_b   3.49595236
_cell_length_c   11.72534882
_cell_angle_alpha   90.00000000
_cell_angle_beta   90.00000000
_cell_angle_gamma   120.00000003
_symmetry_Int_Tables_number   1
_chemical_formula_structural   TiP
_chemical_formula_sum   'Ti4 P4'
_cell_volume   124.10446678
_cell_formula_units_Z   4
loop_
 _symmetry_equiv_pos_site_id
 _symmetry_equiv_pos_as_xyz
  1  'x, y, z'
loop_
 _atom_site_type_symbol
 _atom_site_label
 _atom_site_symmetry_multiplicity
 _atom_site_fract_x
 _atom_site_fract_y
 _atom_site_fract_z
 _atom_site_occupancy
  P  P0  1  0.66666667  0.33333333  0.25000000  1
  P  P1  1  0.33333333  0.66666667  0.75000000  1
  P  P2  1  0.00000000  0.00000000  0.50000000  1
  P  P3  1  0.00000000  0.00000000  0.00000000  1
  Ti  Ti4  1  0.33333333  0.66666667  0.38371369  1
  Ti  Ti5  1  0.66666667  0.33333333  0.88371369  1
  Ti  Ti6  1  0.66666667  0.33333333  0.61628631  1
  Ti  Ti7  1  0.33333333  0.66666667  0.11628631  1
