# generated using pymatgen
data_Sr(ZnAs)2
_symmetry_space_group_name_H-M   'P 1'
_cell_length_a   4.26592588
_cell_length_b   4.26592589
_cell_length_c   7.31926465
_cell_angle_alpha   90.00000000
_cell_angle_beta   90.00000000
_cell_angle_gamma   119.99999995
_symmetry_Int_Tables_number   1
_chemical_formula_structural   Sr(ZnAs)2
_chemical_formula_sum   'Sr1 Zn2 As2'
_cell_volume   115.35188449
_cell_formula_units_Z   1
loop_
 _symmetry_equiv_pos_site_id
 _symmetry_equiv_pos_as_xyz
  1  'x, y, z'
loop_
 _atom_site_type_symbol
 _atom_site_label
 _atom_site_symmetry_multiplicity
 _atom_site_fract_x
 _atom_site_fract_y
 _atom_site_fract_z
 _atom_site_occupancy
  Zn  Zn0  1  0.66666667  0.33333333  0.37059379  1
  Zn  Zn1  1  0.33333333  0.66666667  0.62940621  1
  As  As2  1  0.66666667  0.33333333  0.72935455  1
  As  As3  1  0.33333333  0.66666667  0.27064545  1
  Sr  Sr4  1  0.00000000  0.00000000  0.00000000  1
