# generated using pymatgen
data_BaMgGe
_symmetry_space_group_name_H-M   'P 1'
_cell_length_a   4.69740998
_cell_length_b   4.69766441
_cell_length_c   7.95597791
_cell_angle_alpha   90.00000000
_cell_angle_beta   90.00000000
_cell_angle_gamma   90.00000000
_symmetry_Int_Tables_number   1
_chemical_formula_structural   BaMgGe
_chemical_formula_sum   'Ba2 Mg2 Ge2'
_cell_volume   175.56341635
_cell_formula_units_Z   2
loop_
 _symmetry_equiv_pos_site_id
 _symmetry_equiv_pos_as_xyz
  1  'x, y, z'
loop_
 _atom_site_type_symbol
 _atom_site_label
 _atom_site_symmetry_multiplicity
 _atom_site_fract_x
 _atom_site_fract_y
 _atom_site_fract_z
 _atom_site_occupancy
  Ba  Ba0  1  0.00000000  0.50000000  0.33672536  1
  Ba  Ba1  1  0.50000000  0.00000000  0.66327464  1
  Mg  Mg2  1  0.00000000  0.00000000  0.99999795  1
  Mg  Mg3  1  0.50000000  0.50000000  0.00000205  1
  Ge  Ge4  1  0.00000000  0.50000000  0.79293031  1
  Ge  Ge5  1  0.50000000  0.00000000  0.20706969  1
