# generated using pymatgen
data_ScNiGe
_symmetry_space_group_name_H-M   'P 1'
_cell_length_a   4.08977845
_cell_length_b   6.47687408
_cell_length_c   7.08698386
_cell_angle_alpha   90.00000000
_cell_angle_beta   90.00000000
_cell_angle_gamma   90.00000000
_symmetry_Int_Tables_number   1
_chemical_formula_structural   ScNiGe
_chemical_formula_sum   'Sc4 Ni4 Ge4'
_cell_volume   187.72697398
_cell_formula_units_Z   4
loop_
 _symmetry_equiv_pos_site_id
 _symmetry_equiv_pos_as_xyz
  1  'x, y, z'
loop_
 _atom_site_type_symbol
 _atom_site_label
 _atom_site_symmetry_multiplicity
 _atom_site_fract_x
 _atom_site_fract_y
 _atom_site_fract_z
 _atom_site_occupancy
  Sc  Sc0  1  0.75000000  0.50486028  0.20706836  1
  Sc  Sc1  1  0.75000000  0.00486028  0.29293164  1
  Sc  Sc2  1  0.25000000  0.49513972  0.79293164  1
  Sc  Sc3  1  0.25000000  0.99513972  0.70706836  1
  Ni  Ni4  1  0.75000000  0.31311077  0.57827240  1
  Ni  Ni5  1  0.75000000  0.81311077  0.92172760  1
  Ni  Ni6  1  0.25000000  0.68688923  0.42172760  1
  Ni  Ni7  1  0.25000000  0.18688923  0.07827240  1
  Ge  Ge8  1  0.75000000  0.20598655  0.90605165  1
  Ge  Ge9  1  0.75000000  0.70598655  0.59394835  1
  Ge  Ge10  1  0.25000000  0.79401345  0.09394835  1
  Ge  Ge11  1  0.25000000  0.29401345  0.40605165  1
