# generated using pymatgen
data_GeSe
_symmetry_space_group_name_H-M   'P 1'
_cell_length_a   3.87795360
_cell_length_b   4.54986861
_cell_length_c   11.14222119
_cell_angle_alpha   90.00000000
_cell_angle_beta   90.00000000
_cell_angle_gamma   90.00000000
_symmetry_Int_Tables_number   1
_chemical_formula_structural   GeSe
_chemical_formula_sum   'Ge4 Se4'
_cell_volume   196.59534910
_cell_formula_units_Z   4
loop_
 _symmetry_equiv_pos_site_id
 _symmetry_equiv_pos_as_xyz
  1  'x, y, z'
loop_
 _atom_site_type_symbol
 _atom_site_label
 _atom_site_symmetry_multiplicity
 _atom_site_fract_x
 _atom_site_fract_y
 _atom_site_fract_z
 _atom_site_occupancy
  Ge  Ge0  1  0.25000000  0.11732656  0.12501041  1
  Ge  Ge1  1  0.75000000  0.88267344  0.87498959  1
  Ge  Ge2  1  0.75000000  0.61732656  0.37498959  1
  Ge  Ge3  1  0.25000000  0.38267344  0.62501041  1
  Se  Se4  1  0.25000000  0.50432961  0.85216350  1
  Se  Se5  1  0.75000000  0.49567039  0.14783650  1
  Se  Se6  1  0.75000000  0.00432961  0.64783650  1
  Se  Se7  1  0.25000000  0.99567039  0.35216350  1
