# generated using pymatgen
data_MgAs4
_symmetry_space_group_name_H-M   'P 1'
_cell_length_a   5.47397903
_cell_length_b   5.47397903
_cell_length_c   16.09975977
_cell_angle_alpha   90.00000000
_cell_angle_beta   90.00000000
_cell_angle_gamma   90.00000000
_symmetry_Int_Tables_number   1
_chemical_formula_structural   MgAs4
_chemical_formula_sum   'Mg4 As16'
_cell_volume   482.42038902
_cell_formula_units_Z   4
loop_
 _symmetry_equiv_pos_site_id
 _symmetry_equiv_pos_as_xyz
  1  'x, y, z'
loop_
 _atom_site_type_symbol
 _atom_site_label
 _atom_site_symmetry_multiplicity
 _atom_site_fract_x
 _atom_site_fract_y
 _atom_site_fract_z
 _atom_site_occupancy
  Mg  Mg0  1  0.80314052  0.80314052  0.50000000  1
  Mg  Mg1  1  0.69685948  0.30314052  0.75000000  1
  Mg  Mg2  1  0.30314052  0.69685948  0.25000000  1
  Mg  Mg3  1  0.19685948  0.19685948  0.00000000  1
  As  As4  1  0.40057251  0.47606852  0.87500720  1
  As  As5  1  0.90057251  0.02393148  0.87499280  1
  As  As6  1  0.97606852  0.09942749  0.62500720  1
  As  As7  1  0.02393148  0.90057251  0.12500720  1
  As  As8  1  0.67556552  0.06703315  0.20275620  1
  As  As9  1  0.43296685  0.17556552  0.45275620  1
  As  As10  1  0.56703315  0.82443448  0.95275620  1
  As  As11  1  0.17556552  0.43296685  0.54724380  1
  As  As12  1  0.82443448  0.56703315  0.04724380  1
  As  As13  1  0.32443448  0.93296685  0.70275620  1
  As  As14  1  0.06703315  0.67556552  0.79724380  1
  As  As15  1  0.93296685  0.32443448  0.29724380  1
  As  As16  1  0.59942749  0.52393148  0.37500720  1
  As  As17  1  0.47606852  0.40057251  0.12499280  1
  As  As18  1  0.52393148  0.59942749  0.62499280  1
  As  As19  1  0.09942749  0.97606852  0.37499280  1
