# generated using pymatgen
data_Al2HgTe4
_symmetry_space_group_name_H-M   'P 1'
_cell_length_a   6.28536319
_cell_length_b   6.28536320
_cell_length_c   7.45547066
_cell_angle_alpha   114.93102598
_cell_angle_beta   114.93102603
_cell_angle_gamma   89.99999997
_symmetry_Int_Tables_number   1
_chemical_formula_structural   Al2HgTe4
_chemical_formula_sum   'Al2 Hg1 Te4'
_cell_volume   236.47820221
_cell_formula_units_Z   1
loop_
 _symmetry_equiv_pos_site_id
 _symmetry_equiv_pos_as_xyz
  1  'x, y, z'
loop_
 _atom_site_type_symbol
 _atom_site_label
 _atom_site_symmetry_multiplicity
 _atom_site_fract_x
 _atom_site_fract_y
 _atom_site_fract_z
 _atom_site_occupancy
  Al  Al0  1  0.25000000  0.75000000  0.50000000  1
  Al  Al1  1  0.50000000  0.50000000  0.00000000  1
  Te  Te2  1  0.86377470  0.88107075  0.27649432  1
  Te  Te3  1  0.41271963  0.39542358  0.27649432  1
  Te  Te4  1  0.11892925  0.58728037  0.72350568  1
  Te  Te5  1  0.60457642  0.13622530  0.72350568  1
  Hg  Hg6  1  0.00000000  0.00000000  0.00000000  1
