# generated using pymatgen
data_AlBMo
_symmetry_space_group_name_H-M   'P 1'
_cell_length_a   3.11322340
_cell_length_b   3.22755004
_cell_length_c   7.19784192
_cell_angle_alpha   102.95599385
_cell_angle_beta   90.00000000
_cell_angle_gamma   90.00000000
_symmetry_Int_Tables_number   1
_chemical_formula_structural   AlBMo
_chemical_formula_sum   'Al2 B2 Mo2'
_cell_volume   70.48332458
_cell_formula_units_Z   2
loop_
 _symmetry_equiv_pos_site_id
 _symmetry_equiv_pos_as_xyz
  1  'x, y, z'
loop_
 _atom_site_type_symbol
 _atom_site_label
 _atom_site_symmetry_multiplicity
 _atom_site_fract_x
 _atom_site_fract_y
 _atom_site_fract_z
 _atom_site_occupancy
  B  B0  1  0.25000000  0.53334643  0.06669285  1
  B  B1  1  0.75000000  0.46665357  0.93330715  1
  Al  Al2  1  0.75000000  0.30151029  0.60302058  1
  Al  Al3  1  0.25000000  0.69848971  0.39697942  1
  Mo  Mo4  1  0.25000000  0.91059784  0.82119567  1
  Mo  Mo5  1  0.75000000  0.08940216  0.17880433  1
