# generated using pymatgen
data_MgCuP
_symmetry_space_group_name_H-M   'P 1'
_cell_length_a   3.84435928
_cell_length_b   6.52167553
_cell_length_c   7.13797113
_cell_angle_alpha   90.00000000
_cell_angle_beta   90.00000000
_cell_angle_gamma   90.00000000
_symmetry_Int_Tables_number   1
_chemical_formula_structural   MgCuP
_chemical_formula_sum   'Mg4 Cu4 P4'
_cell_volume   178.96081271
_cell_formula_units_Z   4
loop_
 _symmetry_equiv_pos_site_id
 _symmetry_equiv_pos_as_xyz
  1  'x, y, z'
loop_
 _atom_site_type_symbol
 _atom_site_label
 _atom_site_symmetry_multiplicity
 _atom_site_fract_x
 _atom_site_fract_y
 _atom_site_fract_z
 _atom_site_occupancy
  Mg  Mg0  1  0.75000000  0.46881038  0.32045755  1
  Mg  Mg1  1  0.25000000  0.53118962  0.67954245  1
  Mg  Mg2  1  0.75000000  0.96881038  0.17954245  1
  Mg  Mg3  1  0.25000000  0.03118962  0.82045755  1
  P  P4  1  0.75000000  0.24616672  0.62211360  1
  P  P5  1  0.25000000  0.25383328  0.12211360  1
  P  P6  1  0.25000000  0.75383328  0.37788640  1
  P  P7  1  0.75000000  0.74616672  0.87788640  1
  Cu  Cu8  1  0.25000000  0.12756460  0.43863576  1
  Cu  Cu9  1  0.25000000  0.62756460  0.06136424  1
  Cu  Cu10  1  0.75000000  0.37243540  0.93863576  1
  Cu  Cu11  1  0.75000000  0.87243540  0.56136424  1
