# generated using pymatgen
data_Sr3(AlSn)2
_symmetry_space_group_name_H-M   'P 1'
_cell_length_a   4.50822907
_cell_length_b   4.98257769
_cell_length_c   10.57428005
_cell_angle_alpha   103.61620515
_cell_angle_beta   102.30816104
_cell_angle_gamma   90.00000002
_symmetry_Int_Tables_number   1
_chemical_formula_structural   Sr3(AlSn)2
_chemical_formula_sum   'Sr3 Al2 Sn2'
_cell_volume   225.22880654
_cell_formula_units_Z   1
loop_
 _symmetry_equiv_pos_site_id
 _symmetry_equiv_pos_as_xyz
  1  'x, y, z'
loop_
 _atom_site_type_symbol
 _atom_site_label
 _atom_site_symmetry_multiplicity
 _atom_site_fract_x
 _atom_site_fract_y
 _atom_site_fract_z
 _atom_site_occupancy
  Al  Al0  1  0.93668938  0.43663614  0.87337877  1
  Al  Al1  1  0.06331062  0.56336386  0.12662123  1
  Sr  Sr2  1  0.18239898  0.18228996  0.36479797  1
  Sr  Sr3  1  0.81760102  0.81771004  0.63520203  1
  Sr  Sr4  1  0.50000000  0.00000000  0.00000000  1
  Sn  Sn5  1  0.35843780  0.35873882  0.71687561  1
  Sn  Sn6  1  0.64156220  0.64126118  0.28312439  1
