# generated using pymatgen
data_Cr5Si3
_symmetry_space_group_name_H-M   'P 1'
_cell_length_a   4.58513434
_cell_length_b   6.81434992
_cell_length_c   6.81434991
_cell_angle_alpha   83.50095416
_cell_angle_beta   70.34034337
_cell_angle_gamma   70.34034333
_symmetry_Int_Tables_number   1
_chemical_formula_structural   Cr5Si3
_chemical_formula_sum   'Cr10 Si6'
_cell_volume   188.81354194
_cell_formula_units_Z   2
loop_
 _symmetry_equiv_pos_site_id
 _symmetry_equiv_pos_as_xyz
  1  'x, y, z'
loop_
 _atom_site_type_symbol
 _atom_site_label
 _atom_site_symmetry_multiplicity
 _atom_site_fract_x
 _atom_site_fract_y
 _atom_site_fract_z
 _atom_site_occupancy
  Si  Si0  1  0.25000000  0.00000000  0.00000000  1
  Si  Si1  1  0.75000000  0.00000000  0.00000000  1
  Si  Si2  1  0.16727780  0.50000000  0.16544441  1
  Si  Si3  1  0.33272220  0.83455559  0.50000000  1
  Si  Si4  1  0.66727780  0.16544441  0.50000000  1
  Si  Si5  1  0.83272220  0.50000000  0.83455559  1
  Cr  Cr6  1  0.25000000  0.50000000  0.50000000  1
  Cr  Cr7  1  0.75000000  0.50000000  0.50000000  1
  Cr  Cr8  1  0.07620314  0.15184364  0.69575008  1
  Cr  Cr9  1  0.77195322  0.30424992  0.15184364  1
  Cr  Cr10  1  0.22804678  0.69575008  0.84815636  1
  Cr  Cr11  1  0.92379686  0.84815636  0.30424992  1
  Cr  Cr12  1  0.27195322  0.15184364  0.30424992  1
  Cr  Cr13  1  0.72804678  0.84815636  0.69575008  1
  Cr  Cr14  1  0.42379686  0.30424992  0.84815636  1
  Cr  Cr15  1  0.57620314  0.69575008  0.15184364  1
