# generated using pymatgen
data_GeS2
_symmetry_space_group_name_H-M   'P 1'
_cell_length_a   5.78545229
_cell_length_b   5.78545228
_cell_length_c   6.11900804
_cell_angle_alpha   118.21258270
_cell_angle_beta   118.21258265
_cell_angle_gamma   90.00000001
_symmetry_Int_Tables_number   1
_chemical_formula_structural   GeS2
_chemical_formula_sum   'Ge2 S4'
_cell_volume   152.30995796
_cell_formula_units_Z   2
loop_
 _symmetry_equiv_pos_site_id
 _symmetry_equiv_pos_as_xyz
  1  'x, y, z'
loop_
 _atom_site_type_symbol
 _atom_site_label
 _atom_site_symmetry_multiplicity
 _atom_site_fract_x
 _atom_site_fract_y
 _atom_site_fract_z
 _atom_site_occupancy
  S  S0  1  0.90116939  0.87500000  0.25000000  1
  S  S1  1  0.62500000  0.09883061  0.75000000  1
  S  S2  1  0.34883061  0.37500000  0.25000000  1
  S  S3  1  0.12500000  0.65116939  0.75000000  1
  Ge  Ge4  1  0.25000000  0.75000000  0.50000000  1
  Ge  Ge5  1  0.00000000  0.00000000  0.00000000  1
