# generated using pymatgen
data_SbRu
_symmetry_space_group_name_H-M   'P 1'
_cell_length_a   3.79916588
_cell_length_b   5.95901731
_cell_length_c   6.66025530
_cell_angle_alpha   90.00000000
_cell_angle_beta   90.00000000
_cell_angle_gamma   90.00000000
_symmetry_Int_Tables_number   1
_chemical_formula_structural   SbRu
_chemical_formula_sum   'Sb4 Ru4'
_cell_volume   150.78348613
_cell_formula_units_Z   4
loop_
 _symmetry_equiv_pos_site_id
 _symmetry_equiv_pos_as_xyz
  1  'x, y, z'
loop_
 _atom_site_type_symbol
 _atom_site_label
 _atom_site_symmetry_multiplicity
 _atom_site_fract_x
 _atom_site_fract_y
 _atom_site_fract_z
 _atom_site_occupancy
  Ru  Ru0  1  0.75000000  0.99295367  0.79399607  1
  Ru  Ru1  1  0.25000000  0.00704633  0.20600393  1
  Ru  Ru2  1  0.75000000  0.49295367  0.70600393  1
  Ru  Ru3  1  0.25000000  0.50704633  0.29399607  1
  Sb  Sb4  1  0.75000000  0.79971375  0.41999369  1
  Sb  Sb5  1  0.25000000  0.20028625  0.58000631  1
  Sb  Sb6  1  0.75000000  0.29971375  0.08000631  1
  Sb  Sb7  1  0.25000000  0.70028625  0.91999369  1
