# generated using pymatgen
data_NaCuSe
_symmetry_space_group_name_H-M   'P 1'
_cell_length_a   4.08763228
_cell_length_b   4.08763228
_cell_length_c   6.87493683
_cell_angle_alpha   90.00000000
_cell_angle_beta   90.00000000
_cell_angle_gamma   90.00000000
_symmetry_Int_Tables_number   1
_chemical_formula_structural   NaCuSe
_chemical_formula_sum   'Na2 Cu2 Se2'
_cell_volume   114.87151590
_cell_formula_units_Z   2
loop_
 _symmetry_equiv_pos_site_id
 _symmetry_equiv_pos_as_xyz
  1  'x, y, z'
loop_
 _atom_site_type_symbol
 _atom_site_label
 _atom_site_symmetry_multiplicity
 _atom_site_fract_x
 _atom_site_fract_y
 _atom_site_fract_z
 _atom_site_occupancy
  Na  Na0  1  0.25000000  0.25000000  0.16204213  1
  Na  Na1  1  0.75000000  0.75000000  0.83795787  1
  Cu  Cu2  1  0.75000000  0.25000000  0.50000000  1
  Cu  Cu3  1  0.25000000  0.75000000  0.50000000  1
  Se  Se4  1  0.25000000  0.25000000  0.72308016  1
  Se  Se5  1  0.75000000  0.75000000  0.27691984  1
