# generated using pymatgen
data_NbAs2
_symmetry_space_group_name_H-M   'P 1'
_cell_length_a   3.41778120
_cell_length_b   5.02539255
_cell_length_c   7.13142939
_cell_angle_alpha   78.78629896
_cell_angle_beta   76.13541067
_cell_angle_gamma   70.12000855
_symmetry_Int_Tables_number   1
_chemical_formula_structural   NbAs2
_chemical_formula_sum   'Nb2 As4'
_cell_volume   110.97224235
_cell_formula_units_Z   2
loop_
 _symmetry_equiv_pos_site_id
 _symmetry_equiv_pos_as_xyz
  1  'x, y, z'
loop_
 _atom_site_type_symbol
 _atom_site_label
 _atom_site_symmetry_multiplicity
 _atom_site_fract_x
 _atom_site_fract_y
 _atom_site_fract_z
 _atom_site_occupancy
  As  As0  1  0.85854810  0.75433413  0.52856967  1
  As  As1  1  0.14145190  0.24566587  0.47143033  1
  As  As2  1  0.59493879  0.70334535  0.10677708  1
  As  As3  1  0.40506121  0.29665465  0.89322292  1
  Nb  Nb4  1  0.15693697  0.88218210  0.80394396  1
  Nb  Nb5  1  0.84306303  0.11781790  0.19605604  1
