# generated using pymatgen
data_Nb5SiSn2
_symmetry_space_group_name_H-M   'P 1'
_cell_length_a   5.16702688
_cell_length_b   7.97828583
_cell_length_c   7.97828582
_cell_angle_alpha   83.98100489
_cell_angle_beta   71.10601418
_cell_angle_gamma   71.10601406
_symmetry_Int_Tables_number   1
_chemical_formula_structural   Nb5SiSn2
_chemical_formula_sum   'Nb10 Si2 Sn4'
_cell_volume   294.40945671
_cell_formula_units_Z   2
loop_
 _symmetry_equiv_pos_site_id
 _symmetry_equiv_pos_as_xyz
  1  'x, y, z'
loop_
 _atom_site_type_symbol
 _atom_site_label
 _atom_site_symmetry_multiplicity
 _atom_site_fract_x
 _atom_site_fract_y
 _atom_site_fract_z
 _atom_site_occupancy
  Si  Si0  1  0.75000000  0.00000000  0.00000000  1
  Si  Si1  1  0.25000000  0.00000000  0.00000000  1
  Nb  Nb2  1  0.71057446  0.85921558  0.71963550  1
  Nb  Nb3  1  0.93020996  0.85921558  0.28036450  1
  Nb  Nb4  1  0.28942554  0.14078442  0.28036450  1
  Nb  Nb5  1  0.25000000  0.50000000  0.50000000  1
  Nb  Nb6  1  0.43020996  0.28036450  0.85921558  1
  Nb  Nb7  1  0.56979004  0.71963550  0.14078442  1
  Nb  Nb8  1  0.75000000  0.50000000  0.50000000  1
  Nb  Nb9  1  0.78942554  0.28036450  0.14078442  1
  Nb  Nb10  1  0.06979004  0.14078442  0.71963550  1
  Nb  Nb11  1  0.21057446  0.71963550  0.85921558  1
  Sn  Sn12  1  0.66881482  0.16237036  0.50000000  1
  Sn  Sn13  1  0.83118518  0.50000000  0.83762964  1
  Sn  Sn14  1  0.33118518  0.83762964  0.50000000  1
  Sn  Sn15  1  0.16881482  0.50000000  0.16237036  1
