# generated using pymatgen
data_TiSi
_symmetry_space_group_name_H-M   'P 1'
_cell_length_a   3.64173473
_cell_length_b   5.01079933
_cell_length_c   6.54455560
_cell_angle_alpha   90.00000000
_cell_angle_beta   90.00000000
_cell_angle_gamma   90.00000000
_symmetry_Int_Tables_number   1
_chemical_formula_structural   TiSi
_chemical_formula_sum   'Ti4 Si4'
_cell_volume   119.42506332
_cell_formula_units_Z   4
loop_
 _symmetry_equiv_pos_site_id
 _symmetry_equiv_pos_as_xyz
  1  'x, y, z'
loop_
 _atom_site_type_symbol
 _atom_site_label
 _atom_site_symmetry_multiplicity
 _atom_site_fract_x
 _atom_site_fract_y
 _atom_site_fract_z
 _atom_site_occupancy
  Si  Si0  1  0.25000000  0.85425340  0.54481182  1
  Si  Si1  1  0.75000000  0.14574660  0.45518818  1
  Si  Si2  1  0.75000000  0.35425340  0.95518818  1
  Si  Si3  1  0.25000000  0.64574660  0.04481182  1
  Ti  Ti4  1  0.25000000  0.37193872  0.67553895  1
  Ti  Ti5  1  0.75000000  0.62806128  0.32446105  1
  Ti  Ti6  1  0.75000000  0.87193872  0.82446105  1
  Ti  Ti7  1  0.25000000  0.12806128  0.17553895  1
