# generated using pymatgen
data_CdP4
_symmetry_space_group_name_H-M   'P 1'
_cell_length_a   5.20350800
_cell_length_b   5.33201870
_cell_length_c   7.70939459
_cell_angle_alpha   99.12163321
_cell_angle_beta   90.00000000
_cell_angle_gamma   90.00000000
_symmetry_Int_Tables_number   1
_chemical_formula_structural   CdP4
_chemical_formula_sum   'Cd2 P8'
_cell_volume   211.19375119
_cell_formula_units_Z   2
loop_
 _symmetry_equiv_pos_site_id
 _symmetry_equiv_pos_as_xyz
  1  'x, y, z'
loop_
 _atom_site_type_symbol
 _atom_site_label
 _atom_site_symmetry_multiplicity
 _atom_site_fract_x
 _atom_site_fract_y
 _atom_site_fract_z
 _atom_site_occupancy
  P  P0  1  0.60128719  0.60061372  0.89936795  1
  P  P1  1  0.10128719  0.39938628  0.60063205  1
  P  P2  1  0.28727627  0.73706435  0.74792539  1
  P  P3  1  0.78727627  0.26293565  0.75207461  1
  P  P4  1  0.71272373  0.26293565  0.25207461  1
  P  P5  1  0.21272373  0.73706435  0.24792539  1
  P  P6  1  0.89871281  0.60061372  0.39936795  1
  P  P7  1  0.39871281  0.39938628  0.10063205  1
  Cd  Cd8  1  0.50000000  0.00000000  0.50000000  1
  Cd  Cd9  1  0.00000000  0.00000000  0.00000000  1
