# generated using pymatgen
data_TaCo3
_symmetry_space_group_name_H-M   'P 1'
_cell_length_a   6.92605975
_cell_length_b   6.92605975
_cell_length_c   6.92605975
_cell_angle_alpha   43.76578912
_cell_angle_beta   43.76578914
_cell_angle_gamma   43.76578910
_symmetry_Int_Tables_number   1
_chemical_formula_structural   TaCo3
_chemical_formula_sum   'Ta3 Co9'
_cell_volume   144.31583105
_cell_formula_units_Z   3
loop_
 _symmetry_equiv_pos_site_id
 _symmetry_equiv_pos_as_xyz
  1  'x, y, z'
loop_
 _atom_site_type_symbol
 _atom_site_label
 _atom_site_symmetry_multiplicity
 _atom_site_fract_x
 _atom_site_fract_y
 _atom_site_fract_z
 _atom_site_occupancy
  Co  Co0  1  0.50000000  0.50000000  0.00000000  1
  Co  Co1  1  0.00000000  0.50000000  0.50000000  1
  Co  Co2  1  0.50000000  0.00000000  0.50000000  1
  Co  Co3  1  0.71394125  0.24188160  0.71394125  1
  Co  Co4  1  0.71394125  0.71394125  0.24188160  1
  Co  Co5  1  0.24188160  0.71394125  0.71394125  1
  Co  Co6  1  0.75811840  0.28605875  0.28605875  1
  Co  Co7  1  0.28605875  0.75811840  0.28605875  1
  Co  Co8  1  0.28605875  0.28605875  0.75811840  1
  Ta  Ta9  1  0.00000000  0.00000000  0.00000000  1
  Ta  Ta10  1  0.21843080  0.21843080  0.21843080  1
  Ta  Ta11  1  0.78156920  0.78156920  0.78156920  1
