# generated using pymatgen
data_CaZrS3
_symmetry_space_group_name_H-M   'P 1'
_cell_length_a   6.58769980
_cell_length_b   7.08233364
_cell_length_c   9.66205382
_cell_angle_alpha   90.00000000
_cell_angle_beta   90.00000000
_cell_angle_gamma   90.00000000
_symmetry_Int_Tables_number   1
_chemical_formula_structural   CaZrS3
_chemical_formula_sum   'Ca4 Zr4 S12'
_cell_volume   450.79556477
_cell_formula_units_Z   4
loop_
 _symmetry_equiv_pos_site_id
 _symmetry_equiv_pos_as_xyz
  1  'x, y, z'
loop_
 _atom_site_type_symbol
 _atom_site_label
 _atom_site_symmetry_multiplicity
 _atom_site_fract_x
 _atom_site_fract_y
 _atom_site_fract_z
 _atom_site_occupancy
  S  S0  1  0.81661525  0.19056611  0.56410998  1
  S  S1  1  0.31661525  0.30943389  0.43589002  1
  S  S2  1  0.68338475  0.69056611  0.93589002  1
  S  S3  1  0.18338475  0.80943389  0.06410998  1
  S  S4  1  0.18338475  0.80943389  0.43589002  1
  S  S5  1  0.68338475  0.69056611  0.56410998  1
  S  S6  1  0.31661525  0.30943389  0.06410998  1
  S  S7  1  0.81661525  0.19056611  0.93589002  1
  S  S8  1  0.62541667  0.96550773  0.25000000  1
  S  S9  1  0.12541667  0.53449227  0.75000000  1
  S  S10  1  0.87458333  0.46550773  0.25000000  1
  S  S11  1  0.37458333  0.03449227  0.75000000  1
  Ca  Ca12  1  0.03338691  0.09278011  0.25000000  1
  Ca  Ca13  1  0.53338691  0.40721989  0.75000000  1
  Ca  Ca14  1  0.46661309  0.59278011  0.25000000  1
  Ca  Ca15  1  0.96661309  0.90721989  0.75000000  1
  Zr  Zr16  1  0.50000000  0.00000000  0.00000000  1
  Zr  Zr17  1  0.00000000  0.50000000  0.00000000  1
  Zr  Zr18  1  0.00000000  0.50000000  0.50000000  1
  Zr  Zr19  1  0.50000000  0.00000000  0.50000000  1
