# generated using pymatgen
data_HfSO
_symmetry_space_group_name_H-M   'P 1'
_cell_length_a   5.69862036
_cell_length_b   5.69862036
_cell_length_c   5.69862036
_cell_angle_alpha   90.00000000
_cell_angle_beta   90.00000000
_cell_angle_gamma   90.00000000
_symmetry_Int_Tables_number   1
_chemical_formula_structural   HfSO
_chemical_formula_sum   'Hf4 S4 O4'
_cell_volume   185.05855903
_cell_formula_units_Z   4
loop_
 _symmetry_equiv_pos_site_id
 _symmetry_equiv_pos_as_xyz
  1  'x, y, z'
loop_
 _atom_site_type_symbol
 _atom_site_label
 _atom_site_symmetry_multiplicity
 _atom_site_fract_x
 _atom_site_fract_y
 _atom_site_fract_z
 _atom_site_occupancy
  O  O0  1  0.40508918  0.59491082  0.09491082  1
  O  O1  1  0.59491082  0.09491082  0.40508918  1
  O  O2  1  0.90508918  0.90508918  0.90508918  1
  O  O3  1  0.09491082  0.40508918  0.59491082  1
  S  S4  1  0.91902520  0.41902520  0.08097480  1
  S  S5  1  0.08097480  0.91902520  0.41902520  1
  S  S6  1  0.41902520  0.08097480  0.91902520  1
  S  S7  1  0.58097480  0.58097480  0.58097480  1
  Hf  Hf8  1  0.67968762  0.82031238  0.17968762  1
  Hf  Hf9  1  0.82031238  0.17968762  0.67968762  1
  Hf  Hf10  1  0.17968762  0.67968762  0.82031238  1
  Hf  Hf11  1  0.32031238  0.32031238  0.32031238  1
