# generated using pymatgen
data_Ti2N
_symmetry_space_group_name_H-M   'P 1'
_cell_length_a   4.15148194
_cell_length_b   4.15148194
_cell_length_c   5.32276228
_cell_angle_alpha   112.95290581
_cell_angle_beta   112.95290581
_cell_angle_gamma   89.99999999
_symmetry_Int_Tables_number   1
_chemical_formula_structural   Ti2N
_chemical_formula_sum   'Ti4 N2'
_cell_volume   76.52406947
_cell_formula_units_Z   2
loop_
 _symmetry_equiv_pos_site_id
 _symmetry_equiv_pos_as_xyz
  1  'x, y, z'
loop_
 _atom_site_type_symbol
 _atom_site_label
 _atom_site_symmetry_multiplicity
 _atom_site_fract_x
 _atom_site_fract_y
 _atom_site_fract_z
 _atom_site_occupancy
  N  N0  1  0.62500000  0.37500000  0.25000000  1
  N  N1  1  0.37500000  0.62500000  0.75000000  1
  Ti  Ti2  1  0.85623532  0.60623532  0.71247064  1
  Ti  Ti3  1  0.60623532  0.85623532  0.21247064  1
  Ti  Ti4  1  0.39376468  0.14376468  0.78752936  1
  Ti  Ti5  1  0.14376468  0.39376468  0.28752936  1
