# generated using pymatgen
data_Al2CdTe4
_symmetry_space_group_name_H-M   'P 1'
_cell_length_a   6.29042164
_cell_length_b   6.29042164
_cell_length_c   7.45145919
_cell_angle_alpha   114.96681547
_cell_angle_beta   114.96681544
_cell_angle_gamma   89.99999994
_symmetry_Int_Tables_number   1
_chemical_formula_structural   Al2CdTe4
_chemical_formula_sum   'Al2 Cd1 Te4'
_cell_volume   236.55601933
_cell_formula_units_Z   1
loop_
 _symmetry_equiv_pos_site_id
 _symmetry_equiv_pos_as_xyz
  1  'x, y, z'
loop_
 _atom_site_type_symbol
 _atom_site_label
 _atom_site_symmetry_multiplicity
 _atom_site_fract_x
 _atom_site_fract_y
 _atom_site_fract_z
 _atom_site_occupancy
  Al  Al0  1  0.25000000  0.75000000  0.50000000  1
  Al  Al1  1  0.50000000  0.50000000  0.00000000  1
  Cd  Cd2  1  0.00000000  0.00000000  0.00000000  1
  Te  Te3  1  0.41013383  0.39467988  0.27484294  1
  Te  Te4  1  0.11983694  0.58986617  0.72515706  1
  Te  Te5  1  0.60532012  0.13529089  0.72515706  1
  Te  Te6  1  0.86470911  0.88016306  0.27484294  1
