# generated using pymatgen
data_Fe2P
_symmetry_space_group_name_H-M   'P 1'
_cell_length_a   5.81119694
_cell_length_b   5.81119693
_cell_length_c   3.43058721
_cell_angle_alpha   90.00000000
_cell_angle_beta   90.00000000
_cell_angle_gamma   120.00000003
_symmetry_Int_Tables_number   1
_chemical_formula_structural   Fe2P
_chemical_formula_sum   'Fe6 P3'
_cell_volume   100.32987771
_cell_formula_units_Z   3
loop_
 _symmetry_equiv_pos_site_id
 _symmetry_equiv_pos_as_xyz
  1  'x, y, z'
loop_
 _atom_site_type_symbol
 _atom_site_label
 _atom_site_symmetry_multiplicity
 _atom_site_fract_x
 _atom_site_fract_y
 _atom_site_fract_z
 _atom_site_occupancy
  P  P0  1  0.66666667  0.33333333  0.00000000  1
  P  P1  1  0.33333333  0.66666667  0.00000000  1
  P  P2  1  0.00000000  0.00000000  0.50000000  1
  Fe  Fe3  1  0.59153201  0.00000000  0.50000000  1
  Fe  Fe4  1  0.40846799  0.40846799  0.50000000  1
  Fe  Fe5  1  0.00000000  0.59153201  0.50000000  1
  Fe  Fe6  1  0.00000000  0.25655588  0.00000000  1
  Fe  Fe7  1  0.74344412  0.74344412  0.00000000  1
  Fe  Fe8  1  0.25655588  0.00000000  0.00000000  1
