# generated using pymatgen
data_Al2HgS4
_symmetry_space_group_name_H-M   'P 1'
_cell_length_a   5.63341960
_cell_length_b   5.63341960
_cell_length_c   6.51838449
_cell_angle_alpha   115.60203473
_cell_angle_beta   115.60203468
_cell_angle_gamma   90.00000004
_symmetry_Int_Tables_number   1
_chemical_formula_structural   Al2HgS4
_chemical_formula_sum   'Al2 Hg1 S4'
_cell_volume   163.74253389
_cell_formula_units_Z   1
loop_
 _symmetry_equiv_pos_site_id
 _symmetry_equiv_pos_as_xyz
  1  'x, y, z'
loop_
 _atom_site_type_symbol
 _atom_site_label
 _atom_site_symmetry_multiplicity
 _atom_site_fract_x
 _atom_site_fract_y
 _atom_site_fract_z
 _atom_site_occupancy
  Al  Al0  1  0.25000000  0.75000000  0.50000000  1
  Al  Al1  1  0.50000000  0.50000000  0.00000000  1
  S  S2  1  0.86845382  0.85398595  0.27079772  1
  S  S3  1  0.40234389  0.41681177  0.27079772  1
  S  S4  1  0.14601405  0.59765611  0.72920228  1
  S  S5  1  0.58318823  0.13154618  0.72920228  1
  Hg  Hg6  1  0.00000000  0.00000000  0.00000000  1
