# generated using pymatgen
data_Al2ZnTe4
_symmetry_space_group_name_H-M   'P 1'
_cell_length_a   6.09191787
_cell_length_b   6.09191788
_cell_length_c   7.37665785
_cell_angle_alpha   114.38830649
_cell_angle_beta   114.38830655
_cell_angle_gamma   89.99999993
_symmetry_Int_Tables_number   1
_chemical_formula_structural   Al2ZnTe4
_chemical_formula_sum   'Al2 Zn1 Te4'
_cell_volume   222.23337541
_cell_formula_units_Z   1
loop_
 _symmetry_equiv_pos_site_id
 _symmetry_equiv_pos_as_xyz
  1  'x, y, z'
loop_
 _atom_site_type_symbol
 _atom_site_label
 _atom_site_symmetry_multiplicity
 _atom_site_fract_x
 _atom_site_fract_y
 _atom_site_fract_z
 _atom_site_occupancy
  Al  Al0  1  0.25000000  0.75000000  0.50000000  1
  Al  Al1  1  0.50000000  0.50000000  0.00000000  1
  Zn  Zn2  1  0.00000000  0.00000000  0.00000000  1
  Te  Te3  1  0.39770045  0.37318834  0.26567102  1
  Te  Te4  1  0.10751732  0.60229955  0.73432898  1
  Te  Te5  1  0.62681166  0.13202943  0.73432898  1
  Te  Te6  1  0.86797057  0.89248268  0.26567102  1
