# generated using pymatgen
data_VO2
_symmetry_space_group_name_H-M   'P 1'
_cell_length_a   5.65566363
_cell_length_b   8.43431968
_cell_length_c   3.71982357
_cell_angle_alpha   90.00000000
_cell_angle_beta   90.00000000
_cell_angle_gamma   90.00000000
_symmetry_Int_Tables_number   1
_chemical_formula_structural   VO2
_chemical_formula_sum   'V4 O8'
_cell_volume   177.44181521
_cell_formula_units_Z   4
loop_
 _symmetry_equiv_pos_site_id
 _symmetry_equiv_pos_as_xyz
  1  'x, y, z'
loop_
 _atom_site_type_symbol
 _atom_site_label
 _atom_site_symmetry_multiplicity
 _atom_site_fract_x
 _atom_site_fract_y
 _atom_site_fract_z
 _atom_site_occupancy
  V  V0  1  0.16578471  0.63122791  0.50008403  1
  V  V1  1  0.33421529  0.36877209  0.00008403  1
  V  V2  1  0.66578471  0.86877209  0.49991597  1
  V  V3  1  0.83421529  0.13122791  0.99991597  1
  O  O4  1  0.14129436  0.55861114  0.00008450  1
  O  O5  1  0.33757061  0.79773617  0.50001144  1
  O  O6  1  0.16242939  0.20226383  0.00001144  1
  O  O7  1  0.35870564  0.44138886  0.50008450  1
  O  O8  1  0.64129436  0.94138886  0.99991550  1
  O  O9  1  0.83757061  0.70226383  0.49998856  1
  O  O10  1  0.66242939  0.29773617  0.99998856  1
  O  O11  1  0.85870564  0.05861114  0.49991550  1
