# generated using pymatgen
data_Ba(ZnP)2
_symmetry_space_group_name_H-M   'P 1'
_cell_length_a   4.04107428
_cell_length_b   4.04107428
_cell_length_c   7.25043110
_cell_angle_alpha   106.18133182
_cell_angle_beta   106.18133181
_cell_angle_gamma   89.99999993
_symmetry_Int_Tables_number   1
_chemical_formula_structural   Ba(ZnP)2
_chemical_formula_sum   'Ba1 Zn2 P2'
_cell_volume   108.81851875
_cell_formula_units_Z   1
loop_
 _symmetry_equiv_pos_site_id
 _symmetry_equiv_pos_as_xyz
  1  'x, y, z'
loop_
 _atom_site_type_symbol
 _atom_site_label
 _atom_site_symmetry_multiplicity
 _atom_site_fract_x
 _atom_site_fract_y
 _atom_site_fract_z
 _atom_site_occupancy
  P  P0  1  0.64022040  0.64022040  0.28044079  1
  P  P1  1  0.35977960  0.35977960  0.71955921  1
  Zn  Zn2  1  0.25000000  0.75000000  0.50000000  1
  Zn  Zn3  1  0.75000000  0.25000000  0.50000000  1
  Ba  Ba4  1  0.00000000  0.00000000  0.00000000  1
