# generated using pymatgen
data_CoSb2
_symmetry_space_group_name_H-M   'P 1'
_cell_length_a   6.41272690
_cell_length_b   6.57895500
_cell_length_c   6.53638483
_cell_angle_alpha   117.19775072
_cell_angle_beta   90.00000000
_cell_angle_gamma   90.00000000
_symmetry_Int_Tables_number   1
_chemical_formula_structural   CoSb2
_chemical_formula_sum   'Co4 Sb8'
_cell_volume   245.27379780
_cell_formula_units_Z   4
loop_
 _symmetry_equiv_pos_site_id
 _symmetry_equiv_pos_as_xyz
  1  'x, y, z'
loop_
 _atom_site_type_symbol
 _atom_site_label
 _atom_site_symmetry_multiplicity
 _atom_site_fract_x
 _atom_site_fract_y
 _atom_site_fract_z
 _atom_site_occupancy
  Co  Co0  1  0.99925550  0.28265838  0.27054855  1
  Co  Co1  1  0.49925550  0.21734162  0.72945145  1
  Co  Co2  1  0.00074450  0.71734162  0.72945145  1
  Co  Co3  1  0.50074450  0.78265838  0.27054855  1
  Sb  Sb4  1  0.35561899  0.16638172  0.34857600  1
  Sb  Sb5  1  0.85561899  0.33361828  0.65142400  1
  Sb  Sb6  1  0.64438101  0.83361828  0.65142400  1
  Sb  Sb7  1  0.14438101  0.66638172  0.34857600  1
  Sb  Sb8  1  0.64029949  0.37019351  0.14700760  1
  Sb  Sb9  1  0.14029949  0.12980649  0.85299240  1
  Sb  Sb10  1  0.35970051  0.62980649  0.85299240  1
  Sb  Sb11  1  0.85970051  0.87019351  0.14700760  1
