# generated using pymatgen
data_V2CuO6
_symmetry_space_group_name_H-M   'P 1'
_cell_length_a   4.92908451
_cell_length_b   5.10027388
_cell_length_c   6.60280203
_cell_angle_alpha   73.53999139
_cell_angle_beta   109.43286278
_cell_angle_gamma   138.03273144
_symmetry_Int_Tables_number   1
_chemical_formula_structural   V2CuO6
_chemical_formula_sum   'V2 Cu1 O6'
_cell_volume   104.50615859
_cell_formula_units_Z   1
loop_
 _symmetry_equiv_pos_site_id
 _symmetry_equiv_pos_as_xyz
  1  'x, y, z'
loop_
 _atom_site_type_symbol
 _atom_site_label
 _atom_site_symmetry_multiplicity
 _atom_site_fract_x
 _atom_site_fract_y
 _atom_site_fract_z
 _atom_site_occupancy
  V  V0  1  0.78907478  0.17912832  0.34212236  1
  V  V1  1  0.21092522  0.82087168  0.65787764  1
  Cu  Cu2  1  0.00000000  0.00000000  0.00000000  1
  O  O3  1  0.96507184  0.03132890  0.27176487  1
  O  O4  1  0.03492816  0.96867110  0.72823513  1
  O  O5  1  0.59045084  0.28032468  0.10970860  1
  O  O6  1  0.40954916  0.71967532  0.89029140  1
  O  O7  1  0.69981576  0.30805642  0.57064101  1
  O  O8  1  0.30018424  0.69194358  0.42935899  1
