# generated using pymatgen
data_CaMgPb
_symmetry_space_group_name_H-M   'P 1'
_cell_length_a   7.96810894
_cell_length_b   4.76715323
_cell_length_c   8.94531266
_cell_angle_alpha   90.00000000
_cell_angle_beta   90.00000000
_cell_angle_gamma   90.00000000
_symmetry_Int_Tables_number   1
_chemical_formula_structural   CaMgPb
_chemical_formula_sum   'Ca4 Mg4 Pb4'
_cell_volume   339.78945709
_cell_formula_units_Z   4
loop_
 _symmetry_equiv_pos_site_id
 _symmetry_equiv_pos_as_xyz
  1  'x, y, z'
loop_
 _atom_site_type_symbol
 _atom_site_label
 _atom_site_symmetry_multiplicity
 _atom_site_fract_x
 _atom_site_fract_y
 _atom_site_fract_z
 _atom_site_occupancy
  Ca  Ca0  1  0.98060106  0.75000100  0.18436549  1
  Ca  Ca1  1  0.48060006  0.75000100  0.31563451  1
  Ca  Ca2  1  0.51939894  0.25000000  0.68436449  1
  Ca  Ca3  1  0.01939994  0.25000000  0.81563451  1
  Mg  Mg4  1  0.64351840  0.25000000  0.06196792  1
  Mg  Mg5  1  0.14351740  0.25000000  0.43803208  1
  Mg  Mg6  1  0.85648260  0.75000100  0.56196792  1
  Mg  Mg7  1  0.35648260  0.75000100  0.93803208  1
  Pb  Pb8  1  0.26310579  0.25000000  0.11676225  1
  Pb  Pb9  1  0.76310579  0.25000000  0.38323775  1
  Pb  Pb10  1  0.23689421  0.75000100  0.61676225  1
  Pb  Pb11  1  0.73689421  0.75000100  0.88323675  1
