# generated using pymatgen
data_Ca5(AlSb3)2
_symmetry_space_group_name_H-M   'P 1'
_cell_length_a   4.49905022
_cell_length_b   12.13205672
_cell_length_c   14.14357808
_cell_angle_alpha   90.00000000
_cell_angle_beta   90.00000000
_cell_angle_gamma   90.00000000
_symmetry_Int_Tables_number   1
_chemical_formula_structural   Ca5(AlSb3)2
_chemical_formula_sum   'Ca10 Al4 Sb12'
_cell_volume   771.99513830
_cell_formula_units_Z   2
loop_
 _symmetry_equiv_pos_site_id
 _symmetry_equiv_pos_as_xyz
  1  'x, y, z'
loop_
 _atom_site_type_symbol
 _atom_site_label
 _atom_site_symmetry_multiplicity
 _atom_site_fract_x
 _atom_site_fract_y
 _atom_site_fract_z
 _atom_site_occupancy
  Al  Al0  1  0.00000000  0.16856425  0.21131199  1
  Al  Al1  1  0.00000000  0.83143575  0.78868801  1
  Al  Al2  1  0.00000000  0.66856425  0.28868801  1
  Al  Al3  1  0.00000000  0.33143575  0.71131199  1
  Ca  Ca4  1  0.50000000  0.09274495  0.74731504  1
  Ca  Ca5  1  0.50000000  0.40725505  0.24731504  1
  Ca  Ca6  1  0.50000000  0.32683913  0.51414365  1
  Ca  Ca7  1  0.50000000  0.90725505  0.25268496  1
  Ca  Ca8  1  0.50000000  0.50000000  0.00000000  1
  Ca  Ca9  1  0.50000000  0.00000000  0.50000000  1
  Ca  Ca10  1  0.50000000  0.17316087  0.01414365  1
  Ca  Ca11  1  0.50000000  0.82683913  0.98585635  1
  Ca  Ca12  1  0.50000000  0.67316087  0.48585635  1
  Ca  Ca13  1  0.50000000  0.59274495  0.75268496  1
  Sb  Sb14  1  0.00000000  0.84390614  0.40683700  1
  Sb  Sb15  1  0.00000000  0.15609386  0.59316300  1
  Sb  Sb16  1  0.00000000  0.65609386  0.90683700  1
  Sb  Sb17  1  0.00000000  0.34390614  0.09316300  1
  Sb  Sb18  1  0.50000000  0.33885072  0.82152981  1
  Sb  Sb19  1  0.50000000  0.66114928  0.17847019  1
  Sb  Sb20  1  0.50000000  0.83885072  0.67847019  1
  Sb  Sb21  1  0.50000000  0.16114928  0.32152981  1
  Sb  Sb22  1  0.00000000  0.52528569  0.60022822  1
  Sb  Sb23  1  0.00000000  0.47471431  0.39977178  1
  Sb  Sb24  1  0.00000000  0.02528569  0.89977178  1
  Sb  Sb25  1  0.00000000  0.97471431  0.10022822  1
