# generated using pymatgen
data_CaSi2
_symmetry_space_group_name_H-M   'P 1'
_cell_length_a   4.24295042
_cell_length_b   4.24295042
_cell_length_c   7.47190003
_cell_angle_alpha   106.49472930
_cell_angle_beta   106.49472930
_cell_angle_gamma   90.00000000
_symmetry_Int_Tables_number   1
_chemical_formula_structural   CaSi2
_chemical_formula_sum   'Ca2 Si4'
_cell_volume   123.19373058
_cell_formula_units_Z   2
loop_
 _symmetry_equiv_pos_site_id
 _symmetry_equiv_pos_as_xyz
  1  'x, y, z'
loop_
 _atom_site_type_symbol
 _atom_site_label
 _atom_site_symmetry_multiplicity
 _atom_site_fract_x
 _atom_site_fract_y
 _atom_site_fract_z
 _atom_site_occupancy
  Ca  Ca0  1  0.12500000  0.87500000  0.25000000  1
  Ca  Ca1  1  0.87500000  0.12500000  0.75000000  1
  Si  Si2  1  0.54117190  0.29117190  0.08234380  1
  Si  Si3  1  0.29117190  0.54117190  0.58234380  1
  Si  Si4  1  0.45882810  0.70882810  0.91765620  1
  Si  Si5  1  0.70882810  0.45882810  0.41765620  1
