# generated using pymatgen
data_Hf2Al3
_symmetry_space_group_name_H-M   'P 1'
_cell_length_a   5.51690286
_cell_length_b   5.51690286
_cell_length_c   7.44308863
_cell_angle_alpha   100.72944013
_cell_angle_beta   100.72944018
_cell_angle_gamma   119.84505886
_symmetry_Int_Tables_number   1
_chemical_formula_structural   Hf2Al3
_chemical_formula_sum   'Hf4 Al6'
_cell_volume   182.43408248
_cell_formula_units_Z   2
loop_
 _symmetry_equiv_pos_site_id
 _symmetry_equiv_pos_as_xyz
  1  'x, y, z'
loop_
 _atom_site_type_symbol
 _atom_site_label
 _atom_site_symmetry_multiplicity
 _atom_site_fract_x
 _atom_site_fract_y
 _atom_site_fract_z
 _atom_site_occupancy
  Al  Al0  1  0.62484284  0.62484284  0.00000000  1
  Al  Al1  1  0.87484284  0.37484284  0.50000000  1
  Al  Al2  1  0.54336750  0.17851166  0.72830165  1
  Al  Al3  1  0.45021001  0.81506585  0.27169835  1
  Al  Al4  1  0.42851166  0.29336750  0.22830165  1
  Al  Al5  1  0.06506585  0.20021001  0.77169835  1
  Hf  Hf6  1  0.13753624  0.76809372  0.89405030  1
  Hf  Hf7  1  0.87404342  0.24348594  0.10594970  1
  Hf  Hf8  1  0.01809372  0.88753624  0.39405030  1
  Hf  Hf9  1  0.49348594  0.62404342  0.60594970  1
