# generated using pymatgen
data_Rb2MgF4
_symmetry_space_group_name_H-M   'P 1'
_cell_length_a   4.12942492
_cell_length_b   4.12942492
_cell_length_c   7.59337579
_cell_angle_alpha   105.77793622
_cell_angle_beta   105.77793625
_cell_angle_gamma   89.99999995
_symmetry_Int_Tables_number   1
_chemical_formula_structural   Rb2MgF4
_chemical_formula_sum   'Rb2 Mg1 F4'
_cell_volume   119.52727818
_cell_formula_units_Z   1
loop_
 _symmetry_equiv_pos_site_id
 _symmetry_equiv_pos_as_xyz
  1  'x, y, z'
loop_
 _atom_site_type_symbol
 _atom_site_label
 _atom_site_symmetry_multiplicity
 _atom_site_fract_x
 _atom_site_fract_y
 _atom_site_fract_z
 _atom_site_occupancy
  F  F0  1  0.50000000  0.00000000  0.00000000  1
  F  F1  1  0.00000000  0.50000000  0.00000000  1
  F  F2  1  0.85536446  0.85536446  0.71072892  1
  F  F3  1  0.14463554  0.14463554  0.28927108  1
  Mg  Mg4  1  0.00000000  0.00000000  0.00000000  1
  Rb  Rb5  1  0.64829818  0.64829818  0.29659637  1
  Rb  Rb6  1  0.35170182  0.35170182  0.70340363  1
