# generated using pymatgen
data_CaSiPd
_symmetry_space_group_name_H-M   'P 1'
_cell_length_a   5.76865579
_cell_length_b   5.91284694
_cell_length_c   7.42536586
_cell_angle_alpha   109.42077631
_cell_angle_beta   90.00000000
_cell_angle_gamma   90.00000000
_symmetry_Int_Tables_number   1
_chemical_formula_structural   CaSiPd
_chemical_formula_sum   'Ca4 Si4 Pd4'
_cell_volume   238.86243427
_cell_formula_units_Z   4
loop_
 _symmetry_equiv_pos_site_id
 _symmetry_equiv_pos_as_xyz
  1  'x, y, z'
loop_
 _atom_site_type_symbol
 _atom_site_label
 _atom_site_symmetry_multiplicity
 _atom_site_fract_x
 _atom_site_fract_y
 _atom_site_fract_z
 _atom_site_occupancy
  Si  Si0  1  0.61712490  0.17091374  0.95540928  1
  Si  Si1  1  0.38287510  0.82908626  0.04459072  1
  Si  Si2  1  0.11712490  0.32908626  0.54459072  1
  Si  Si3  1  0.88287510  0.67091374  0.45540928  1
  Ca  Ca4  1  0.12671580  0.31867540  0.11598346  1
  Ca  Ca5  1  0.37328420  0.81867540  0.61598346  1
  Ca  Ca6  1  0.87328420  0.68132460  0.88401654  1
  Ca  Ca7  1  0.62671580  0.18132460  0.38401654  1
  Pd  Pd8  1  0.61182730  0.57662048  0.18978641  1
  Pd  Pd9  1  0.38817270  0.42337952  0.81021359  1
  Pd  Pd10  1  0.88817270  0.07662048  0.68978641  1
  Pd  Pd11  1  0.11182730  0.92337952  0.31021359  1
