# generated using pymatgen
data_Ba2ZrO4
_symmetry_space_group_name_H-M   'P 1'
_cell_length_a   4.24906120
_cell_length_b   4.24906120
_cell_length_c   7.44469449
_cell_angle_alpha   106.58127271
_cell_angle_beta   106.58127264
_cell_angle_gamma   89.99999998
_symmetry_Int_Tables_number   1
_chemical_formula_structural   Ba2ZrO4
_chemical_formula_sum   'Ba2 Zr1 O4'
_cell_volume   122.97795051
_cell_formula_units_Z   1
loop_
 _symmetry_equiv_pos_site_id
 _symmetry_equiv_pos_as_xyz
  1  'x, y, z'
loop_
 _atom_site_type_symbol
 _atom_site_label
 _atom_site_symmetry_multiplicity
 _atom_site_fract_x
 _atom_site_fract_y
 _atom_site_fract_z
 _atom_site_occupancy
  O  O0  1  0.84254386  0.84254386  0.68508772  1
  O  O1  1  0.15745614  0.15745614  0.31491228  1
  O  O2  1  0.00000000  0.50000000  0.00000000  1
  O  O3  1  0.50000000  0.00000000  0.00000000  1
  Zr  Zr4  1  0.00000000  0.00000000  0.00000000  1
  Ba  Ba5  1  0.64700838  0.64700838  0.29401676  1
  Ba  Ba6  1  0.35299162  0.35299162  0.70598324  1
