# generated using pymatgen
data_ZrAsRu
_symmetry_space_group_name_H-M   'P 1'
_cell_length_a   6.64120255
_cell_length_b   6.64120255
_cell_length_c   3.94438360
_cell_angle_alpha   90.00000000
_cell_angle_beta   90.00000000
_cell_angle_gamma   120.00000004
_symmetry_Int_Tables_number   1
_chemical_formula_structural   ZrAsRu
_chemical_formula_sum   'Zr3 As3 Ru3'
_cell_volume   150.66182648
_cell_formula_units_Z   3
loop_
 _symmetry_equiv_pos_site_id
 _symmetry_equiv_pos_as_xyz
  1  'x, y, z'
loop_
 _atom_site_type_symbol
 _atom_site_label
 _atom_site_symmetry_multiplicity
 _atom_site_fract_x
 _atom_site_fract_y
 _atom_site_fract_z
 _atom_site_occupancy
  As  As0  1  0.00000000  0.00000000  0.50000000  1
  As  As1  1  0.66666667  0.33333333  0.00000000  1
  As  As2  1  0.33333333  0.66666667  0.00000000  1
  Zr  Zr3  1  0.41771419  0.41771419  0.50000000  1
  Zr  Zr4  1  0.58228581  0.00000000  0.50000000  1
  Zr  Zr5  1  0.00000000  0.58228581  0.50000000  1
  Ru  Ru6  1  0.00000000  0.24370331  0.00000000  1
  Ru  Ru7  1  0.24370331  0.00000000  0.00000000  1
  Ru  Ru8  1  0.75629669  0.75629669  0.00000000  1
