# generated using pymatgen
data_Rb2NbF6
_symmetry_space_group_name_H-M   'P 1'
_cell_length_a   6.29812441
_cell_length_b   6.29812442
_cell_length_c   4.76619470
_cell_angle_alpha   90.00000000
_cell_angle_beta   90.00000000
_cell_angle_gamma   120.00000002
_symmetry_Int_Tables_number   1
_chemical_formula_structural   Rb2NbF6
_chemical_formula_sum   'Rb2 Nb1 F6'
_cell_volume   163.72872577
_cell_formula_units_Z   1
loop_
 _symmetry_equiv_pos_site_id
 _symmetry_equiv_pos_as_xyz
  1  'x, y, z'
loop_
 _atom_site_type_symbol
 _atom_site_label
 _atom_site_symmetry_multiplicity
 _atom_site_fract_x
 _atom_site_fract_y
 _atom_site_fract_z
 _atom_site_occupancy
  F  F0  1  0.84093889  0.15906111  0.78306121  1
  F  F1  1  0.84093889  0.68187777  0.78306121  1
  F  F2  1  0.31812223  0.15906111  0.78306121  1
  F  F3  1  0.15906111  0.84093889  0.21693879  1
  F  F4  1  0.15906111  0.31812223  0.21693879  1
  F  F5  1  0.68187777  0.84093889  0.21693879  1
  Rb  Rb6  1  0.33333333  0.66666667  0.69879200  1
  Rb  Rb7  1  0.66666667  0.33333333  0.30120800  1
  Nb  Nb8  1  0.00000000  0.00000000  0.00000000  1
