# generated using pymatgen
data_Y3Al7Cu2
_symmetry_space_group_name_H-M   'P 1'
_cell_length_a   5.50206668
_cell_length_b   5.50206678
_cell_length_c   9.06665262
_cell_angle_alpha   107.66332553
_cell_angle_beta   90.00000000
_cell_angle_gamma   60.00000058
_symmetry_Int_Tables_number   1
_chemical_formula_structural   Y3Al7Cu2
_chemical_formula_sum   'Y3 Al7 Cu2'
_cell_volume   222.63322039
_cell_formula_units_Z   1
loop_
 _symmetry_equiv_pos_site_id
 _symmetry_equiv_pos_as_xyz
  1  'x, y, z'
loop_
 _atom_site_type_symbol
 _atom_site_label
 _atom_site_symmetry_multiplicity
 _atom_site_fract_x
 _atom_site_fract_y
 _atom_site_fract_z
 _atom_site_occupancy
  Y  Y0  1  0.00000000  0.00000000  0.00000000  1
  Y  Y1  1  0.85813814  0.28372471  0.42558657  1
  Y  Y2  1  0.14186186  0.71627729  0.57441443  1
  Al  Al3  1  0.41836140  0.16327820  0.23595347  1
  Al  Al4  1  0.41836140  0.65431587  0.23595347  1
  Al  Al5  1  0.92732373  0.65431587  0.23595347  1
  Al  Al6  1  0.50000100  0.99999900  0.50000000  1
  Al  Al7  1  0.07267727  0.34568513  0.76404553  1
  Al  Al8  1  0.58163860  0.34568513  0.76404553  1
  Al  Al9  1  0.58163960  0.83672180  0.76404553  1
  Cu  Cu10  1  0.66477901  0.67044299  0.00566598  1
  Cu  Cu11  1  0.33522299  0.32955501  0.99433402  1
