# generated using pymatgen
data_Ga2O3
_symmetry_space_group_name_H-M   'P 1'
_cell_length_a   3.08296874
_cell_length_b   5.87615337
_cell_length_c   6.41420528
_cell_angle_alpha   103.27512312
_cell_angle_beta   103.90563528
_cell_angle_gamma   90.00000005
_symmetry_Int_Tables_number   1
_chemical_formula_structural   Ga2O3
_chemical_formula_sum   'Ga4 O6'
_cell_volume   109.59278730
_cell_formula_units_Z   2
loop_
 _symmetry_equiv_pos_site_id
 _symmetry_equiv_pos_as_xyz
  1  'x, y, z'
loop_
 _atom_site_type_symbol
 _atom_site_label
 _atom_site_symmetry_multiplicity
 _atom_site_fract_x
 _atom_site_fract_y
 _atom_site_fract_z
 _atom_site_occupancy
  O  O0  1  0.49589741  0.25649105  0.99179481  1
  O  O1  1  0.50410259  0.74350895  0.00820519  1
  O  O2  1  0.17359797  0.56429422  0.34719595  1
  O  O3  1  0.82640203  0.43570578  0.65280405  1
  O  O4  1  0.83649711  0.89104742  0.67299422  1
  O  O5  1  0.16350289  0.10895258  0.32700578  1
  Ga  Ga6  1  0.65840995  0.31408203  0.31681989  1
  Ga  Ga7  1  0.34159005  0.68591797  0.68318011  1
  Ga  Ga8  1  0.08987781  0.79476062  0.17975561  1
  Ga  Ga9  1  0.91012219  0.20523938  0.82024439  1
