# generated using pymatgen
data_SbIrS
_symmetry_space_group_name_H-M   'P 1'
_cell_length_a   6.10426699
_cell_length_b   6.10426699
_cell_length_c   6.10426699
_cell_angle_alpha   90.00000000
_cell_angle_beta   90.00000000
_cell_angle_gamma   90.00000000
_symmetry_Int_Tables_number   1
_chemical_formula_structural   SbIrS
_chemical_formula_sum   'Sb4 Ir4 S4'
_cell_volume   227.45765736
_cell_formula_units_Z   4
loop_
 _symmetry_equiv_pos_site_id
 _symmetry_equiv_pos_as_xyz
  1  'x, y, z'
loop_
 _atom_site_type_symbol
 _atom_site_label
 _atom_site_symmetry_multiplicity
 _atom_site_fract_x
 _atom_site_fract_y
 _atom_site_fract_z
 _atom_site_occupancy
  S  S0  1  0.38335772  0.11664228  0.88335772  1
  S  S1  1  0.11664228  0.88335772  0.38335772  1
  S  S2  1  0.88335772  0.38335772  0.11664228  1
  S  S3  1  0.61664228  0.61664228  0.61664228  1
  Sb  Sb4  1  0.37677402  0.37677402  0.37677402  1
  Sb  Sb5  1  0.12322598  0.62322598  0.87677402  1
  Sb  Sb6  1  0.87677402  0.12322598  0.62322598  1
  Sb  Sb7  1  0.62322598  0.87677402  0.12322598  1
  Ir  Ir8  1  0.98653955  0.51346045  0.48653955  1
  Ir  Ir9  1  0.51346045  0.48653955  0.98653955  1
  Ir  Ir10  1  0.48653955  0.98653955  0.51346045  1
  Ir  Ir11  1  0.01346045  0.01346045  0.01346045  1
