# generated using pymatgen
data_CaSiPt
_symmetry_space_group_name_H-M   'P 1'
_cell_length_a   5.89253487
_cell_length_b   5.94519297
_cell_length_c   7.29049656
_cell_angle_alpha   109.11388450
_cell_angle_beta   90.00000000
_cell_angle_gamma   90.00000000
_symmetry_Int_Tables_number   1
_chemical_formula_structural   CaSiPt
_chemical_formula_sum   'Ca4 Si4 Pt4'
_cell_volume   241.32210128
_cell_formula_units_Z   4
loop_
 _symmetry_equiv_pos_site_id
 _symmetry_equiv_pos_as_xyz
  1  'x, y, z'
loop_
 _atom_site_type_symbol
 _atom_site_label
 _atom_site_symmetry_multiplicity
 _atom_site_fract_x
 _atom_site_fract_y
 _atom_site_fract_z
 _atom_site_occupancy
  Si  Si0  1  0.62059878  0.18012605  0.94717322  1
  Si  Si1  1  0.37940122  0.81987395  0.05282678  1
  Si  Si2  1  0.12059878  0.31987395  0.55282678  1
  Si  Si3  1  0.87940122  0.68012605  0.44717322  1
  Ca  Ca4  1  0.12882610  0.31802099  0.11425634  1
  Ca  Ca5  1  0.37117390  0.81802099  0.61425634  1
  Ca  Ca6  1  0.87117390  0.68197901  0.88574366  1
  Ca  Ca7  1  0.62882610  0.18197901  0.38574366  1
  Pt  Pt8  1  0.60860465  0.56867032  0.19148616  1
  Pt  Pt9  1  0.39139535  0.43132968  0.80851384  1
  Pt  Pt10  1  0.89139535  0.06867032  0.69148616  1
  Pt  Pt11  1  0.10860465  0.93132968  0.30851384  1
