# generated using pymatgen
data_CuAgS
_symmetry_space_group_name_H-M   'P 1'
_cell_length_a   3.93823685
_cell_length_b   3.93823685
_cell_length_c   8.45477093
_cell_angle_alpha   90.00000000
_cell_angle_beta   90.00000000
_cell_angle_gamma   119.51807823
_symmetry_Int_Tables_number   1
_chemical_formula_structural   CuAgS
_chemical_formula_sum   'Cu2 Ag2 S2'
_cell_volume   114.11026857
_cell_formula_units_Z   2
loop_
 _symmetry_equiv_pos_site_id
 _symmetry_equiv_pos_as_xyz
  1  'x, y, z'
loop_
 _atom_site_type_symbol
 _atom_site_label
 _atom_site_symmetry_multiplicity
 _atom_site_fract_x
 _atom_site_fract_y
 _atom_site_fract_z
 _atom_site_occupancy
  S  S0  1  0.18361460  0.81638540  0.25093925  1
  S  S1  1  0.81638540  0.18361460  0.75093925  1
  Cu  Cu2  1  0.47770356  0.52229644  0.75098498  1
  Cu  Cu3  1  0.52229644  0.47770356  0.25098498  1
  Ag  Ag4  1  0.99975334  0.00024666  0.00107577  1
  Ag  Ag5  1  0.00024666  0.99975334  0.50107577  1
