# generated using pymatgen
data_MgCo2
_symmetry_space_group_name_H-M   'P 1'
_cell_length_a   4.82194567
_cell_length_b   4.82194567
_cell_length_c   7.85535080
_cell_angle_alpha   90.00000000
_cell_angle_beta   90.00000000
_cell_angle_gamma   119.99109776
_symmetry_Int_Tables_number   1
_chemical_formula_structural   MgCo2
_chemical_formula_sum   'Mg4 Co8'
_cell_volume   158.19027909
_cell_formula_units_Z   4
loop_
 _symmetry_equiv_pos_site_id
 _symmetry_equiv_pos_as_xyz
  1  'x, y, z'
loop_
 _atom_site_type_symbol
 _atom_site_label
 _atom_site_symmetry_multiplicity
 _atom_site_fract_x
 _atom_site_fract_y
 _atom_site_fract_z
 _atom_site_occupancy
  Mg  Mg0  1  0.66668216  0.33331784  0.56338122  1
  Mg  Mg1  1  0.33331784  0.66668216  0.43661878  1
  Mg  Mg2  1  0.33331784  0.66668216  0.06338122  1
  Mg  Mg3  1  0.66668216  0.33331784  0.93661878  1
  Co  Co4  1  -0.00000000  0.00000000  0.50000000  1
  Co  Co5  1  -0.00000000  0.00000000  0.00000000  1
  Co  Co6  1  0.17068712  0.34140504  0.75000000  1
  Co  Co7  1  0.17073802  0.82926198  0.75000000  1
  Co  Co8  1  0.65859496  0.82931288  0.75000000  1
  Co  Co9  1  0.82931288  0.65859496  0.25000000  1
  Co  Co10  1  0.82926198  0.17073802  0.25000000  1
  Co  Co11  1  0.34140504  0.17068712  0.25000000  1
