# generated using pymatgen
data_Sc3RuC4
_symmetry_space_group_name_H-M   'P 1'
_cell_length_a   3.33292569
_cell_length_b   4.50403338
_cell_length_c   6.81640955
_cell_angle_alpha   109.29194222
_cell_angle_beta   104.15099308
_cell_angle_gamma   90.00000000
_symmetry_Int_Tables_number   1
_chemical_formula_structural   Sc3RuC4
_chemical_formula_sum   'Sc3 Ru1 C4'
_cell_volume   93.28330191
_cell_formula_units_Z   1
loop_
 _symmetry_equiv_pos_site_id
 _symmetry_equiv_pos_as_xyz
  1  'x, y, z'
loop_
 _atom_site_type_symbol
 _atom_site_label
 _atom_site_symmetry_multiplicity
 _atom_site_fract_x
 _atom_site_fract_y
 _atom_site_fract_z
 _atom_site_occupancy
  C  C0  1  0.62913358  0.78780859  0.25826716  1
  C  C1  1  0.37086642  0.21219141  0.74173284  1
  C  C2  1  0.37086642  0.52954143  0.74173284  1
  C  C3  1  0.62913358  0.47045857  0.25826716  1
  Sc  Sc4  1  0.81059959  0.81059959  0.62119917  1
  Sc  Sc5  1  0.18940041  0.18940041  0.37880083  1
  Sc  Sc6  1  0.00000000  0.50000000  0.00000000  1
  Ru  Ru7  1  0.50000000  0.00000000  0.00000000  1
