# generated using pymatgen
data_FeSi
_symmetry_space_group_name_H-M   'P 1'
_cell_length_a   4.44822136
_cell_length_b   4.44822136
_cell_length_c   4.44822136
_cell_angle_alpha   90.00000000
_cell_angle_beta   90.00000000
_cell_angle_gamma   90.00000000
_symmetry_Int_Tables_number   1
_chemical_formula_structural   FeSi
_chemical_formula_sum   'Fe4 Si4'
_cell_volume   88.01550267
_cell_formula_units_Z   4
loop_
 _symmetry_equiv_pos_site_id
 _symmetry_equiv_pos_as_xyz
  1  'x, y, z'
loop_
 _atom_site_type_symbol
 _atom_site_label
 _atom_site_symmetry_multiplicity
 _atom_site_fract_x
 _atom_site_fract_y
 _atom_site_fract_z
 _atom_site_occupancy
  Fe  Fe0  1  0.86368428  0.63631572  0.36368428  1
  Fe  Fe1  1  0.63631572  0.36368428  0.86368428  1
  Fe  Fe2  1  0.36368428  0.86368428  0.63631572  1
  Fe  Fe3  1  0.13631572  0.13631572  0.13631572  1
  Si  Si4  1  0.15918658  0.34081342  0.65918658  1
  Si  Si5  1  0.34081342  0.65918658  0.15918658  1
  Si  Si6  1  0.65918658  0.15918658  0.34081342  1
  Si  Si7  1  0.84081342  0.84081342  0.84081342  1
