# generated using pymatgen
data_CaSbPt
_symmetry_space_group_name_H-M   'P 1'
_cell_length_a   4.64081112
_cell_length_b   7.40020050
_cell_length_c   7.96904118
_cell_angle_alpha   90.00000000
_cell_angle_beta   90.00000000
_cell_angle_gamma   90.00000000
_symmetry_Int_Tables_number   1
_chemical_formula_structural   CaSbPt
_chemical_formula_sum   'Ca4 Sb4 Pt4'
_cell_volume   273.68024549
_cell_formula_units_Z   4
loop_
 _symmetry_equiv_pos_site_id
 _symmetry_equiv_pos_as_xyz
  1  'x, y, z'
loop_
 _atom_site_type_symbol
 _atom_site_label
 _atom_site_symmetry_multiplicity
 _atom_site_fract_x
 _atom_site_fract_y
 _atom_site_fract_z
 _atom_site_occupancy
  Ca  Ca0  1  0.75000000  0.99212154  0.30191644  1
  Ca  Ca1  1  0.25000000  0.00787846  0.69808356  1
  Ca  Ca2  1  0.75000000  0.49212154  0.19808356  1
  Ca  Ca3  1  0.25000000  0.50787846  0.80191644  1
  Sb  Sb4  1  0.75000000  0.31393296  0.59054933  1
  Sb  Sb5  1  0.25000000  0.18606704  0.09054933  1
  Sb  Sb6  1  0.25000000  0.68606704  0.40945067  1
  Sb  Sb7  1  0.75000000  0.81393296  0.90945067  1
  Pt  Pt8  1  0.25000000  0.80234398  0.08483237  1
  Pt  Pt9  1  0.25000000  0.30234398  0.41516763  1
  Pt  Pt10  1  0.75000000  0.69765602  0.58483237  1
  Pt  Pt11  1  0.75000000  0.19765602  0.91516763  1
