# generated using pymatgen
data_ZrCoP
_symmetry_space_group_name_H-M   'P 1'
_cell_length_a   3.70124190
_cell_length_b   6.34964647
_cell_length_c   7.17578095
_cell_angle_alpha   90.00000000
_cell_angle_beta   90.00000000
_cell_angle_gamma   90.00000000
_symmetry_Int_Tables_number   1
_chemical_formula_structural   ZrCoP
_chemical_formula_sum   'Zr4 Co4 P4'
_cell_volume   168.64217259
_cell_formula_units_Z   4
loop_
 _symmetry_equiv_pos_site_id
 _symmetry_equiv_pos_as_xyz
  1  'x, y, z'
loop_
 _atom_site_type_symbol
 _atom_site_label
 _atom_site_symmetry_multiplicity
 _atom_site_fract_x
 _atom_site_fract_y
 _atom_site_fract_z
 _atom_site_occupancy
  P  P0  1  0.25000000  0.77553765  0.61287816  1
  P  P1  1  0.25000000  0.27553765  0.88712184  1
  P  P2  1  0.75000000  0.22446235  0.38712184  1
  P  P3  1  0.75000000  0.72446235  0.11287816  1
  Co  Co4  1  0.75000000  0.36181039  0.06059664  1
  Co  Co5  1  0.25000000  0.13818961  0.56059664  1
  Co  Co6  1  0.75000000  0.86181039  0.43940336  1
  Co  Co7  1  0.25000000  0.63818961  0.93940336  1
  Zr  Zr8  1  0.25000000  0.51914030  0.31691556  1
  Zr  Zr9  1  0.25000000  0.01914030  0.18308444  1
  Zr  Zr10  1  0.75000000  0.98085970  0.81691556  1
  Zr  Zr11  1  0.75000000  0.48085970  0.68308444  1
