# generated using pymatgen
data_TiFeSi
_symmetry_space_group_name_H-M   'P 1'
_cell_length_a   6.25932115
_cell_length_b   6.94084462
_cell_length_c   7.12129127
_cell_angle_alpha   119.16527246
_cell_angle_beta   116.07066741
_cell_angle_gamma   89.99999998
_symmetry_Int_Tables_number   1
_chemical_formula_structural   TiFeSi
_chemical_formula_sum   'Ti6 Fe6 Si6'
_cell_volume   233.45028515
_cell_formula_units_Z   6
loop_
 _symmetry_equiv_pos_site_id
 _symmetry_equiv_pos_as_xyz
  1  'x, y, z'
loop_
 _atom_site_type_symbol
 _atom_site_label
 _atom_site_symmetry_multiplicity
 _atom_site_fract_x
 _atom_site_fract_y
 _atom_site_fract_z
 _atom_site_occupancy
  Si  Si0  1  0.53729644  0.78021257  0.06042514  1
  Si  Si1  1  0.16254710  0.17588931  0.33493777  1
  Si  Si2  1  0.16254710  0.65904846  0.33493777  1
  Si  Si3  1  0.82760933  0.34095154  0.66506223  1
  Si  Si4  1  0.47687130  0.21978743  0.93957486  1
  Si  Si5  1  0.82760933  0.82411069  0.66506223  1
  Ti  Ti6  1  0.91271625  0.24663984  0.99327969  1
  Ti  Ti7  1  0.49134195  0.97644332  0.45288663  1
  Ti  Ti8  1  0.03845532  0.02355668  0.54711337  1
  Ti  Ti9  1  0.49522516  0.44584653  0.39169306  1
  Ti  Ti10  1  0.91943657  0.75336016  0.00672031  1
  Ti  Ti11  1  0.10353210  0.55415347  0.60830694  1
  Fe  Fe12  1  0.25131969  0.50000000  0.00000000  1
  Fe  Fe13  1  0.25131969  0.00000000  0.00000000  1
  Fe  Fe14  1  0.49774360  0.84297326  0.75330087  1
  Fe  Fe15  1  0.74444273  0.58967239  0.24669913  1
  Fe  Fe16  1  0.49774360  0.41032761  0.75330087  1
  Fe  Fe17  1  0.74444273  0.15702674  0.24669913  1
