# generated using pymatgen
data_Rb2PtF6
_symmetry_space_group_name_H-M   'P 1'
_cell_length_a   6.08908327
_cell_length_b   6.08908326
_cell_length_c   4.95276353
_cell_angle_alpha   90.00000000
_cell_angle_beta   90.00000000
_cell_angle_gamma   119.99999999
_symmetry_Int_Tables_number   1
_chemical_formula_structural   Rb2PtF6
_chemical_formula_sum   'Rb2 Pt1 F6'
_cell_volume   159.03109546
_cell_formula_units_Z   1
loop_
 _symmetry_equiv_pos_site_id
 _symmetry_equiv_pos_as_xyz
  1  'x, y, z'
loop_
 _atom_site_type_symbol
 _atom_site_label
 _atom_site_symmetry_multiplicity
 _atom_site_fract_x
 _atom_site_fract_y
 _atom_site_fract_z
 _atom_site_occupancy
  F  F0  1  0.84245097  0.15754903  0.78259083  1
  F  F1  1  0.84245097  0.68490194  0.78259083  1
  F  F2  1  0.31509806  0.15754903  0.78259083  1
  F  F3  1  0.15754903  0.84245097  0.21740917  1
  F  F4  1  0.15754903  0.31509806  0.21740917  1
  F  F5  1  0.68490194  0.84245097  0.21740917  1
  Rb  Rb6  1  0.33333333  0.66666667  0.71236950  1
  Rb  Rb7  1  0.66666667  0.33333333  0.28763050  1
  Pt  Pt8  1  0.00000000  0.00000000  0.00000000  1
