# generated using pymatgen
data_Ba2CuO3
_symmetry_space_group_name_H-M   'P 1'
_cell_length_a   3.85418244
_cell_length_b   4.17360690
_cell_length_c   7.17675600
_cell_angle_alpha   106.90347360
_cell_angle_beta   105.57612359
_cell_angle_gamma   89.99999999
_symmetry_Int_Tables_number   1
_chemical_formula_structural   Ba2CuO3
_chemical_formula_sum   'Ba2 Cu1 O3'
_cell_volume   106.01749867
_cell_formula_units_Z   1
loop_
 _symmetry_equiv_pos_site_id
 _symmetry_equiv_pos_as_xyz
  1  'x, y, z'
loop_
 _atom_site_type_symbol
 _atom_site_label
 _atom_site_symmetry_multiplicity
 _atom_site_fract_x
 _atom_site_fract_y
 _atom_site_fract_z
 _atom_site_occupancy
  O  O0  1  0.00000000  0.00000000  0.00000000  1
  O  O1  1  0.85267180  0.35269396  0.70534359  1
  O  O2  1  0.14732820  0.64730604  0.29465641  1
  Cu  Cu3  1  0.00000000  0.50000000  0.00000000  1
  Ba  Ba4  1  0.64523794  0.14526746  0.29047589  1
  Ba  Ba5  1  0.35476206  0.85473254  0.70952411  1
