# generated using pymatgen
data_TaNi3
_symmetry_space_group_name_H-M   'P 1'
_cell_length_a   4.24630128
_cell_length_b   4.54252928
_cell_length_c   5.10836964
_cell_angle_alpha   90.00000000
_cell_angle_beta   90.00000000
_cell_angle_gamma   90.00000000
_symmetry_Int_Tables_number   1
_chemical_formula_structural   TaNi3
_chemical_formula_sum   'Ta2 Ni6'
_cell_volume   98.53507582
_cell_formula_units_Z   2
loop_
 _symmetry_equiv_pos_site_id
 _symmetry_equiv_pos_as_xyz
  1  'x, y, z'
loop_
 _atom_site_type_symbol
 _atom_site_label
 _atom_site_symmetry_multiplicity
 _atom_site_fract_x
 _atom_site_fract_y
 _atom_site_fract_z
 _atom_site_occupancy
  Ni  Ni0  1  0.75000000  0.31946084  0.25000000  1
  Ni  Ni1  1  0.25000000  0.68053916  0.75000000  1
  Ni  Ni2  1  0.25000000  0.15882903  0.49970850  1
  Ni  Ni3  1  0.75000000  0.84117097  0.50029150  1
  Ni  Ni4  1  0.25000000  0.15882903  0.00029150  1
  Ni  Ni5  1  0.75000000  0.84117097  0.99970850  1
  Ta  Ta6  1  0.25000000  0.65101652  0.25000000  1
  Ta  Ta7  1  0.75000000  0.34898348  0.75000000  1
