# generated using pymatgen
data_Hf2Ni
_symmetry_space_group_name_H-M   'P 1'
_cell_length_a   5.23150995
_cell_length_b   5.23257092
_cell_length_c   5.23257092
_cell_angle_alpha   75.52848643
_cell_angle_beta   60.00670717
_cell_angle_gamma   60.00670713
_symmetry_Int_Tables_number   1
_chemical_formula_structural   Hf2Ni
_chemical_formula_sum   'Hf4 Ni2'
_cell_volume   107.44278631
_cell_formula_units_Z   2
loop_
 _symmetry_equiv_pos_site_id
 _symmetry_equiv_pos_as_xyz
  1  'x, y, z'
loop_
 _atom_site_type_symbol
 _atom_site_label
 _atom_site_symmetry_multiplicity
 _atom_site_fract_x
 _atom_site_fract_y
 _atom_site_fract_z
 _atom_site_occupancy
  Ni  Ni0  1  0.75000000  0.00000000  0.00000000  1
  Ni  Ni1  1  0.25000000  0.00000000  0.00000000  1
  Hf  Hf2  1  0.66423029  0.17153941  0.50000000  1
  Hf  Hf3  1  0.83576971  0.50000000  0.82846059  1
  Hf  Hf4  1  0.33576971  0.82846059  0.50000000  1
  Hf  Hf5  1  0.16423029  0.50000000  0.17153941  1
