# generated using pymatgen
data_Hf3Al2
_symmetry_space_group_name_H-M   'P 1'
_cell_length_a   6.87561791
_cell_length_b   7.58794692
_cell_length_c   7.58794692
_cell_angle_alpha   90.00000000
_cell_angle_beta   90.00000000
_cell_angle_gamma   90.00000000
_symmetry_Int_Tables_number   1
_chemical_formula_structural   Hf3Al2
_chemical_formula_sum   'Hf12 Al8'
_cell_volume   395.87702928
_cell_formula_units_Z   4
loop_
 _symmetry_equiv_pos_site_id
 _symmetry_equiv_pos_as_xyz
  1  'x, y, z'
loop_
 _atom_site_type_symbol
 _atom_site_label
 _atom_site_symmetry_multiplicity
 _atom_site_fract_x
 _atom_site_fract_y
 _atom_site_fract_z
 _atom_site_occupancy
  Al  Al0  1  0.20999728  0.12123194  0.12123194  1
  Al  Al1  1  0.70999728  0.37876806  0.62123194  1
  Al  Al2  1  0.70999728  0.62123194  0.37876806  1
  Al  Al3  1  0.20999728  0.87876806  0.87876806  1
  Al  Al4  1  0.29000272  0.62123194  0.37876806  1
  Al  Al5  1  0.29000272  0.37876806  0.62123194  1
  Al  Al6  1  0.79000272  0.12123194  0.12123194  1
  Al  Al7  1  0.79000272  0.87876806  0.87876806  1
  Hf  Hf8  1  0.00000000  0.34485936  0.34485936  1
  Hf  Hf9  1  0.50000000  0.15514064  0.84485936  1
  Hf  Hf10  1  0.50000000  0.84485936  0.15514064  1
  Hf  Hf11  1  0.00000000  0.65514064  0.65514064  1
  Hf  Hf12  1  0.00000000  0.20213293  0.79786707  1
  Hf  Hf13  1  0.50000000  0.70213293  0.70213293  1
  Hf  Hf14  1  0.50000000  0.29786707  0.29786707  1
  Hf  Hf15  1  0.00000000  0.79786707  0.20213293  1
  Hf  Hf16  1  0.25000000  0.00000000  0.50000000  1
  Hf  Hf17  1  0.75000000  0.00000000  0.50000000  1
  Hf  Hf18  1  0.25000000  0.50000000  0.00000000  1
  Hf  Hf19  1  0.75000000  0.50000000  0.00000000  1
