# generated using pymatgen
data_K2Sn2O3
_symmetry_space_group_name_H-M   'P 1'
_cell_length_a   7.37352680
_cell_length_b   7.37352680
_cell_length_c   7.37352680
_cell_angle_alpha   109.47122066
_cell_angle_beta   109.47122067
_cell_angle_gamma   109.47122062
_symmetry_Int_Tables_number   1
_chemical_formula_structural   K2Sn2O3
_chemical_formula_sum   'K4 Sn4 O6'
_cell_volume   308.60566785
_cell_formula_units_Z   2
loop_
 _symmetry_equiv_pos_site_id
 _symmetry_equiv_pos_as_xyz
  1  'x, y, z'
loop_
 _atom_site_type_symbol
 _atom_site_label
 _atom_site_symmetry_multiplicity
 _atom_site_fract_x
 _atom_site_fract_y
 _atom_site_fract_z
 _atom_site_occupancy
  O  O0  1  0.75000000  0.97927268  0.22927268  1
  O  O1  1  0.25000000  0.52072732  0.27072732  1
  O  O2  1  0.97927268  0.22927268  0.75000000  1
  O  O3  1  0.22927268  0.75000000  0.97927268  1
  O  O4  1  0.27072732  0.25000000  0.52072732  1
  O  O5  1  0.52072732  0.27072732  0.25000000  1
  K  K6  1  0.48189999  0.50000000  0.00000000  1
  K  K7  1  0.01810001  0.01810001  0.01810001  1
  K  K8  1  0.00000000  0.48189999  0.50000000  1
  K  K9  1  0.50000000  0.00000000  0.48189999  1
  Sn  Sn10  1  0.50000000  0.00000000  0.01162281  1
  Sn  Sn11  1  0.00000000  0.01162281  0.50000000  1
  Sn  Sn12  1  0.48837719  0.48837719  0.48837719  1
  Sn  Sn13  1  0.01162281  0.50000000  0.00000000  1
