# generated using pymatgen
data_SrSiPd
_symmetry_space_group_name_H-M   'P 1'
_cell_length_a   6.56967120
_cell_length_b   6.56967120
_cell_length_c   6.56967120
_cell_angle_alpha   90.00000000
_cell_angle_beta   90.00000000
_cell_angle_gamma   90.00000000
_symmetry_Int_Tables_number   1
_chemical_formula_structural   SrSiPd
_chemical_formula_sum   'Sr4 Si4 Pd4'
_cell_volume   283.55081727
_cell_formula_units_Z   4
loop_
 _symmetry_equiv_pos_site_id
 _symmetry_equiv_pos_as_xyz
  1  'x, y, z'
loop_
 _atom_site_type_symbol
 _atom_site_label
 _atom_site_symmetry_multiplicity
 _atom_site_fract_x
 _atom_site_fract_y
 _atom_site_fract_z
 _atom_site_occupancy
  Si  Si0  1  0.16305565  0.33694435  0.66305565  1
  Si  Si1  1  0.66305565  0.16305565  0.33694435  1
  Si  Si2  1  0.33694435  0.66305565  0.16305565  1
  Si  Si3  1  0.83694435  0.83694435  0.83694435  1
  Sr  Sr4  1  0.62850440  0.37149560  0.87149560  1
  Sr  Sr5  1  0.37149560  0.87149560  0.62850440  1
  Sr  Sr6  1  0.12850440  0.12850440  0.12850440  1
  Sr  Sr7  1  0.87149560  0.62850440  0.37149560  1
  Pd  Pd8  1  0.59014564  0.90985436  0.09014564  1
  Pd  Pd9  1  0.09014564  0.59014564  0.90985436  1
  Pd  Pd10  1  0.40985436  0.40985436  0.40985436  1
  Pd  Pd11  1  0.90985436  0.09014564  0.59014564  1
