# generated using pymatgen
data_Cs2PtF6
_symmetry_space_group_name_H-M   'P 1'
_cell_length_a   6.34656056
_cell_length_b   6.34656056
_cell_length_c   5.19686422
_cell_angle_alpha   90.00000000
_cell_angle_beta   90.00000000
_cell_angle_gamma   120.00000001
_symmetry_Int_Tables_number   1
_chemical_formula_structural   Cs2PtF6
_chemical_formula_sum   'Cs2 Pt1 F6'
_cell_volume   181.27956845
_cell_formula_units_Z   1
loop_
 _symmetry_equiv_pos_site_id
 _symmetry_equiv_pos_as_xyz
  1  'x, y, z'
loop_
 _atom_site_type_symbol
 _atom_site_label
 _atom_site_symmetry_multiplicity
 _atom_site_fract_x
 _atom_site_fract_y
 _atom_site_fract_z
 _atom_site_occupancy
  F  F0  1  0.84924608  0.15075392  0.79068265  1
  F  F1  1  0.84924608  0.69849216  0.79068265  1
  F  F2  1  0.30150784  0.15075392  0.79068265  1
  F  F3  1  0.15075392  0.84924608  0.20931735  1
  F  F4  1  0.15075392  0.30150784  0.20931735  1
  F  F5  1  0.69849216  0.84924608  0.20931735  1
  Cs  Cs6  1  0.33333333  0.66666667  0.70893547  1
  Cs  Cs7  1  0.66666667  0.33333333  0.29106453  1
  Pt  Pt8  1  0.00000000  0.00000000  0.00000000  1
