# generated using pymatgen
data_BaAsPt
_symmetry_space_group_name_H-M   'P 1'
_cell_length_a   6.82925544
_cell_length_b   6.82925544
_cell_length_c   6.82925544
_cell_angle_alpha   90.00000000
_cell_angle_beta   90.00000000
_cell_angle_gamma   90.00000000
_symmetry_Int_Tables_number   1
_chemical_formula_structural   BaAsPt
_chemical_formula_sum   'Ba4 As4 Pt4'
_cell_volume   318.50779964
_cell_formula_units_Z   4
loop_
 _symmetry_equiv_pos_site_id
 _symmetry_equiv_pos_as_xyz
  1  'x, y, z'
loop_
 _atom_site_type_symbol
 _atom_site_label
 _atom_site_symmetry_multiplicity
 _atom_site_fract_x
 _atom_site_fract_y
 _atom_site_fract_z
 _atom_site_occupancy
  As  As0  1  0.17119404  0.32880596  0.67119404  1
  As  As1  1  0.67119404  0.17119404  0.32880596  1
  As  As2  1  0.32880596  0.67119404  0.17119404  1
  As  As3  1  0.82880596  0.82880596  0.82880596  1
  Ba  Ba4  1  0.61012140  0.38987860  0.88987860  1
  Ba  Ba5  1  0.38987860  0.88987860  0.61012140  1
  Ba  Ba6  1  0.11012140  0.11012140  0.11012140  1
  Ba  Ba7  1  0.88987860  0.61012140  0.38987860  1
  Pt  Pt8  1  0.59557423  0.90442577  0.09557423  1
  Pt  Pt9  1  0.09557423  0.59557423  0.90442577  1
  Pt  Pt10  1  0.40442577  0.40442577  0.40442577  1
  Pt  Pt11  1  0.90442577  0.09557423  0.59557423  1
