# generated using pymatgen
data_Li(Co3P2)2
_symmetry_space_group_name_H-M   'P 1'
_cell_length_a   6.54033724
_cell_length_b   6.54033724
_cell_length_c   3.33567750
_cell_angle_alpha   90.00000000
_cell_angle_beta   90.00000000
_cell_angle_gamma   120.00000000
_symmetry_Int_Tables_number   1
_chemical_formula_structural   Li(Co3P2)2
_chemical_formula_sum   'Li1 Co6 P4'
_cell_volume   123.57054788
_cell_formula_units_Z   1
loop_
 _symmetry_equiv_pos_site_id
 _symmetry_equiv_pos_as_xyz
  1  'x, y, z'
loop_
 _atom_site_type_symbol
 _atom_site_label
 _atom_site_symmetry_multiplicity
 _atom_site_fract_x
 _atom_site_fract_y
 _atom_site_fract_z
 _atom_site_occupancy
  Li  Li0  1  0.00000000  0.00000000  0.00000000  1
  P  P1  1  0.81642082  0.18357918  0.50000000  1
  P  P2  1  0.36715836  0.18357918  0.50000000  1
  P  P3  1  0.33333333  0.66666667  0.00000000  1
  P  P4  1  0.81642082  0.63284164  0.50000000  1
  Co  Co5  1  0.19992299  0.80007701  0.50000000  1
  Co  Co6  1  0.19992299  0.39984598  0.50000000  1
  Co  Co7  1  0.53600782  0.07201565  0.00000000  1
  Co  Co8  1  0.92798435  0.46399218  0.00000000  1
  Co  Co9  1  0.53600782  0.46399218  0.00000000  1
  Co  Co10  1  0.60015402  0.80007701  0.50000000  1
