# generated using pymatgen
data_Mg(BeAs)2
_symmetry_space_group_name_H-M   'P 1'
_cell_length_a   3.79641706
_cell_length_b   3.79644327
_cell_length_c   6.46391248
_cell_angle_alpha   89.99999736
_cell_angle_beta   89.99767675
_cell_angle_gamma   120.00022727
_symmetry_Int_Tables_number   1
_chemical_formula_structural   Mg(BeAs)2
_chemical_formula_sum   'Mg1 Be2 As2'
_cell_volume   80.68186623
_cell_formula_units_Z   1
loop_
 _symmetry_equiv_pos_site_id
 _symmetry_equiv_pos_as_xyz
  1  'x, y, z'
loop_
 _atom_site_type_symbol
 _atom_site_label
 _atom_site_symmetry_multiplicity
 _atom_site_fract_x
 _atom_site_fract_y
 _atom_site_fract_z
 _atom_site_occupancy
  Mg  Mg0  1  0.00000000  0.00000000  0.00000000  1
  Be  Be1  1  0.66665890  0.33332995  0.37461839  1
  Be  Be2  1  0.33334110  0.66667105  0.62538161  1
  As  As3  1  0.33333300  0.66666700  0.26424724  1
  As  As4  1  0.66666500  0.33333400  0.73575276  1
