# generated using pymatgen
data_Na2MgSn
_symmetry_space_group_name_H-M   'P 1'
_cell_length_a   5.08261390
_cell_length_b   5.08262635
_cell_length_c   10.07058511
_cell_angle_alpha   90.00000000
_cell_angle_beta   90.00000000
_cell_angle_gamma   119.99991225
_symmetry_Int_Tables_number   1
_chemical_formula_structural   Na2MgSn
_chemical_formula_sum   'Na4 Mg2 Sn2'
_cell_volume   225.29991246
_cell_formula_units_Z   2
loop_
 _symmetry_equiv_pos_site_id
 _symmetry_equiv_pos_as_xyz
  1  'x, y, z'
loop_
 _atom_site_type_symbol
 _atom_site_label
 _atom_site_symmetry_multiplicity
 _atom_site_fract_x
 _atom_site_fract_y
 _atom_site_fract_z
 _atom_site_occupancy
  Na  Na0  1  0.66668192  0.33336384  0.07965197  1
  Na  Na1  1  0.66668192  0.33336384  0.42034803  1
  Na  Na2  1  0.33331808  0.66663616  0.57965197  1
  Na  Na3  1  0.33331808  0.66663616  0.92034803  1
  Mg  Mg4  1  0.99999516  0.99999031  0.25000000  1
  Mg  Mg5  1  0.00000484  0.00000969  0.75000000  1
  Sn  Sn6  1  0.33332777  0.66665554  0.25000000  1
  Sn  Sn7  1  0.66667223  0.33334446  0.75000000  1
