# generated using pymatgen
data_CaNi4B
_symmetry_space_group_name_H-M   'P 1'
_cell_length_a   5.02760539
_cell_length_b   5.02995955
_cell_length_c   6.86513115
_cell_angle_alpha   90.00000000
_cell_angle_beta   90.00000000
_cell_angle_gamma   119.98452581
_symmetry_Int_Tables_number   1
_chemical_formula_structural   CaNi4B
_chemical_formula_sum   'Ca2 Ni8 B2'
_cell_volume   150.37403172
_cell_formula_units_Z   2
loop_
 _symmetry_equiv_pos_site_id
 _symmetry_equiv_pos_as_xyz
  1  'x, y, z'
loop_
 _atom_site_type_symbol
 _atom_site_label
 _atom_site_symmetry_multiplicity
 _atom_site_fract_x
 _atom_site_fract_y
 _atom_site_fract_z
 _atom_site_occupancy
  Ca  Ca0  1  0.99998373  0.00000000  0.00000000  1
  Ca  Ca1  1  0.99999279  -0.00000000  0.50000000  1
  Ni  Ni2  1  0.33330102  0.66666927  0.00000000  1
  Ni  Ni3  1  0.66663176  0.33333073  0.00000000  1
  Ni  Ni4  1  0.49999042  0.00000000  0.29525020  1
  Ni  Ni5  1  0.49998759  0.50000398  0.29519152  1
  Ni  Ni6  1  0.99998361  0.49999602  0.29519152  1
  Ni  Ni7  1  0.49999042  0.00000000  0.70474980  1
  Ni  Ni8  1  0.49998759  0.50000398  0.70480848  1
  Ni  Ni9  1  0.99998361  0.49999602  0.70480848  1
  B  B10  1  0.33331436  0.66666126  0.50000000  1
  B  B11  1  0.66665310  0.33333874  0.50000000  1
