# generated using pymatgen
data_Te4Pt3
_symmetry_space_group_name_H-M   'P 1'
_cell_length_a   4.04944039
_cell_length_b   4.04944039
_cell_length_c   12.34173193
_cell_angle_alpha   80.97881836
_cell_angle_beta   80.97881836
_cell_angle_gamma   60.08587649
_symmetry_Int_Tables_number   1
_chemical_formula_structural   Te4Pt3
_chemical_formula_sum   'Te4 Pt3'
_cell_volume   172.51539308
_cell_formula_units_Z   1
loop_
 _symmetry_equiv_pos_site_id
 _symmetry_equiv_pos_as_xyz
  1  'x, y, z'
loop_
 _atom_site_type_symbol
 _atom_site_label
 _atom_site_symmetry_multiplicity
 _atom_site_fract_x
 _atom_site_fract_y
 _atom_site_fract_z
 _atom_site_occupancy
  Te  Te0  1  0.94976702  0.94976702  0.16104073  1
  Te  Te1  1  0.05023298  0.05023298  0.83895927  1
  Te  Te2  1  0.20267986  0.20267986  0.38632094  1
  Te  Te3  1  0.79732014  0.79732014  0.61367906  1
  Pt  Pt4  1  0.50000000  0.50000000  0.50000000  1
  Pt  Pt5  1  0.64788348  0.64788348  0.06098733  1
  Pt  Pt6  1  0.35211652  0.35211652  0.93901267  1
