# generated using pymatgen
data_MnNbGe
_symmetry_space_group_name_H-M   'P 1'
_cell_length_a   6.42770352
_cell_length_b   6.42770351
_cell_length_c   3.74012238
_cell_angle_alpha   90.00000000
_cell_angle_beta   90.00000000
_cell_angle_gamma   120.00000003
_symmetry_Int_Tables_number   1
_chemical_formula_structural   MnNbGe
_chemical_formula_sum   'Mn3 Nb3 Ge3'
_cell_volume   133.82218521
_cell_formula_units_Z   3
loop_
 _symmetry_equiv_pos_site_id
 _symmetry_equiv_pos_as_xyz
  1  'x, y, z'
loop_
 _atom_site_type_symbol
 _atom_site_label
 _atom_site_symmetry_multiplicity
 _atom_site_fract_x
 _atom_site_fract_y
 _atom_site_fract_z
 _atom_site_occupancy
  Mn  Mn0  1  0.76075542  0.76075542  0.00000000  1
  Mn  Mn1  1  0.23924458  0.00000000  0.00000000  1
  Mn  Mn2  1  0.00000000  0.23924458  0.00000000  1
  Ge  Ge3  1  0.66666667  0.33333333  0.00000000  1
  Ge  Ge4  1  0.00000000  0.00000000  0.50000000  1
  Ge  Ge5  1  0.33333333  0.66666667  0.00000000  1
  Nb  Nb6  1  0.00000000  0.58069135  0.50000000  1
  Nb  Nb7  1  0.41930865  0.41930865  0.50000000  1
  Nb  Nb8  1  0.58069135  0.00000000  0.50000000  1
