# generated using pymatgen
data_NbP
_symmetry_space_group_name_H-M   'P 1'
_cell_length_a   3.35643703
_cell_length_b   3.35643703
_cell_length_c   6.19119765
_cell_angle_alpha   105.72766494
_cell_angle_beta   105.72766503
_cell_angle_gamma   90.00000003
_symmetry_Int_Tables_number   1
_chemical_formula_structural   NbP
_chemical_formula_sum   'Nb2 P2'
_cell_volume   64.41962966
_cell_formula_units_Z   2
loop_
 _symmetry_equiv_pos_site_id
 _symmetry_equiv_pos_as_xyz
  1  'x, y, z'
loop_
 _atom_site_type_symbol
 _atom_site_label
 _atom_site_symmetry_multiplicity
 _atom_site_fract_x
 _atom_site_fract_y
 _atom_site_fract_z
 _atom_site_occupancy
  P  P0  1  0.16744705  0.66744705  0.33489410  1
  P  P1  1  0.41744705  0.41744705  0.83489410  1
  Nb  Nb2  1  0.74992295  0.24992295  0.49984590  1
  Nb  Nb3  1  0.99992295  0.99992295  0.99984590  1
