# generated using pymatgen
data_NbNiB
_symmetry_space_group_name_H-M   'P 1'
_cell_length_a   3.07882645
_cell_length_b   3.30145255
_cell_length_c   6.88399450
_cell_angle_alpha   103.87425977
_cell_angle_beta   90.00000000
_cell_angle_gamma   90.00000000
_symmetry_Int_Tables_number   1
_chemical_formula_structural   NbNiB
_chemical_formula_sum   'Nb2 Ni2 B2'
_cell_volume   67.93153450
_cell_formula_units_Z   2
loop_
 _symmetry_equiv_pos_site_id
 _symmetry_equiv_pos_as_xyz
  1  'x, y, z'
loop_
 _atom_site_type_symbol
 _atom_site_label
 _atom_site_symmetry_multiplicity
 _atom_site_fract_x
 _atom_site_fract_y
 _atom_site_fract_z
 _atom_site_occupancy
  B  B0  1  0.25000000  0.53435692  0.06871383  1
  B  B1  1  0.75000000  0.46564308  0.93128617  1
  Ni  Ni2  1  0.75000000  0.29535968  0.59071935  1
  Ni  Ni3  1  0.25000000  0.70464032  0.40928065  1
  Nb  Nb4  1  0.25000000  0.90173808  0.80347616  1
  Nb  Nb5  1  0.75000000  0.09826192  0.19652384  1
