# generated using pymatgen
data_Sc2CoSi2
_symmetry_space_group_name_H-M   'P 1'
_cell_length_a   3.95742746
_cell_length_b   5.32089329
_cell_length_c   8.52124063
_cell_angle_alpha   82.54141029
_cell_angle_beta   76.57280588
_cell_angle_gamma   68.16862421
_symmetry_Int_Tables_number   1
_chemical_formula_structural   Sc2CoSi2
_chemical_formula_sum   'Sc4 Co2 Si4'
_cell_volume   161.82308138
_cell_formula_units_Z   2
loop_
 _symmetry_equiv_pos_site_id
 _symmetry_equiv_pos_as_xyz
  1  'x, y, z'
loop_
 _atom_site_type_symbol
 _atom_site_label
 _atom_site_symmetry_multiplicity
 _atom_site_fract_x
 _atom_site_fract_y
 _atom_site_fract_z
 _atom_site_occupancy
  Si  Si0  1  0.01219330  0.85064962  0.12496379  1
  Si  Si1  1  0.85499469  0.72071291  0.56929772  1
  Si  Si2  1  0.98780670  0.14935038  0.87503621  1
  Si  Si3  1  0.14500531  0.27928709  0.43070228  1
  Sc  Sc4  1  0.68400472  0.73747764  0.89451292  1
  Sc  Sc5  1  0.49966424  0.67239843  0.32827310  1
  Sc  Sc6  1  0.31599528  0.26252236  0.10548708  1
  Sc  Sc7  1  0.50033576  0.32760157  0.67172690  1
  Co  Co8  1  0.22545917  0.92354106  0.62554060  1
  Co  Co9  1  0.77454083  0.07645894  0.37445940  1
