# generated using pymatgen
data_ZrS3
_symmetry_space_group_name_H-M   'P 1'
_cell_length_a   3.65864699
_cell_length_b   5.20195062
_cell_length_c   9.75054494
_cell_angle_alpha   96.72950876
_cell_angle_beta   90.00000000
_cell_angle_gamma   90.00000000
_symmetry_Int_Tables_number   1
_chemical_formula_structural   ZrS3
_chemical_formula_sum   'Zr2 S6'
_cell_volume   184.29483519
_cell_formula_units_Z   2
loop_
 _symmetry_equiv_pos_site_id
 _symmetry_equiv_pos_as_xyz
  1  'x, y, z'
loop_
 _atom_site_type_symbol
 _atom_site_label
 _atom_site_symmetry_multiplicity
 _atom_site_fract_x
 _atom_site_fract_y
 _atom_site_fract_z
 _atom_site_occupancy
  S  S0  1  0.25000000  0.88271619  0.19377100  1
  S  S1  1  0.75000000  0.11728381  0.80622900  1
  S  S2  1  0.75000000  0.23891233  0.44936058  1
  S  S3  1  0.25000000  0.76108767  0.55063942  1
  S  S4  1  0.75000000  0.51625375  0.80723393  1
  S  S5  1  0.25000000  0.48374625  0.19276607  1
  Zr  Zr6  1  0.25000000  0.28157260  0.64330855  1
  Zr  Zr7  1  0.75000000  0.71842740  0.35669145  1
