# generated using pymatgen
data_TlTe3Pt2
_symmetry_space_group_name_H-M   'P 1'
_cell_length_a   8.06862730
_cell_length_b   8.06862730
_cell_length_c   6.06065350
_cell_angle_alpha   90.00000000
_cell_angle_beta   90.00000000
_cell_angle_gamma   119.99999998
_symmetry_Int_Tables_number   1
_chemical_formula_structural   TlTe3Pt2
_chemical_formula_sum   'Tl2 Te6 Pt4'
_cell_volume   341.70347689
_cell_formula_units_Z   2
loop_
 _symmetry_equiv_pos_site_id
 _symmetry_equiv_pos_as_xyz
  1  'x, y, z'
loop_
 _atom_site_type_symbol
 _atom_site_label
 _atom_site_symmetry_multiplicity
 _atom_site_fract_x
 _atom_site_fract_y
 _atom_site_fract_z
 _atom_site_occupancy
  Te  Te0  1  0.83035277  0.16964723  0.22002704  1
  Te  Te1  1  0.83035277  0.66070553  0.22002704  1
  Te  Te2  1  0.33929447  0.16964723  0.22002704  1
  Te  Te3  1  0.66070553  0.83035277  0.77997296  1
  Te  Te4  1  0.16964723  0.83035277  0.77997296  1
  Te  Te5  1  0.16964723  0.33929447  0.77997296  1
  Pt  Pt6  1  0.00000000  0.00000000  0.00000000  1
  Pt  Pt7  1  0.00000000  0.50000000  0.00000000  1
  Pt  Pt8  1  0.50000000  0.00000000  0.00000000  1
  Pt  Pt9  1  0.50000000  0.50000000  0.00000000  1
  Tl  Tl10  1  0.66666667  0.33333333  0.68893202  1
  Tl  Tl11  1  0.33333333  0.66666667  0.31106798  1
