# generated using pymatgen
data_ScSiPt
_symmetry_space_group_name_H-M   'P 1'
_cell_length_a   4.14885908
_cell_length_b   6.61783604
_cell_length_c   7.35588635
_cell_angle_alpha   90.00000000
_cell_angle_beta   90.00000000
_cell_angle_gamma   90.00000000
_symmetry_Int_Tables_number   1
_chemical_formula_structural   ScSiPt
_chemical_formula_sum   'Sc4 Si4 Pt4'
_cell_volume   201.96666660
_cell_formula_units_Z   4
loop_
 _symmetry_equiv_pos_site_id
 _symmetry_equiv_pos_as_xyz
  1  'x, y, z'
loop_
 _atom_site_type_symbol
 _atom_site_label
 _atom_site_symmetry_multiplicity
 _atom_site_fract_x
 _atom_site_fract_y
 _atom_site_fract_z
 _atom_site_occupancy
  Sc  Sc0  1  0.75000000  0.50108162  0.20092901  1
  Sc  Sc1  1  0.25000000  0.99891838  0.70092901  1
  Sc  Sc2  1  0.75000000  0.00108162  0.29907099  1
  Sc  Sc3  1  0.25000000  0.49891838  0.79907099  1
  Si  Si4  1  0.25000000  0.80654639  0.09412920  1
  Si  Si5  1  0.25000000  0.30654639  0.40587080  1
  Si  Si6  1  0.75000000  0.19345361  0.90587080  1
  Si  Si7  1  0.75000000  0.69345361  0.59412920  1
  Pt  Pt8  1  0.25000000  0.69925120  0.41624882  1
  Pt  Pt9  1  0.25000000  0.19925120  0.08375118  1
  Pt  Pt10  1  0.75000000  0.80074880  0.91624882  1
  Pt  Pt11  1  0.75000000  0.30074880  0.58375118  1
