# generated using pymatgen
data_Ti2FeS4
_symmetry_space_group_name_H-M   'P 1'
_cell_length_a   3.36221738
_cell_length_b   5.90789144
_cell_length_c   6.64157167
_cell_angle_alpha   115.93128580
_cell_angle_beta   104.66216190
_cell_angle_gamma   90.00000002
_symmetry_Int_Tables_number   1
_chemical_formula_structural   Ti2FeS4
_chemical_formula_sum   'Ti2 Fe1 S4'
_cell_volume   113.84696962
_cell_formula_units_Z   1
loop_
 _symmetry_equiv_pos_site_id
 _symmetry_equiv_pos_as_xyz
  1  'x, y, z'
loop_
 _atom_site_type_symbol
 _atom_site_label
 _atom_site_symmetry_multiplicity
 _atom_site_fract_x
 _atom_site_fract_y
 _atom_site_fract_z
 _atom_site_occupancy
  S  S0  1  0.88136900  0.20648960  0.76273800  1
  S  S1  1  0.11863100  0.79351040  0.23726200  1
  S  S2  1  0.37637529  0.70902571  0.75275058  1
  S  S3  1  0.62362471  0.29097429  0.24724942  1
  Ti  Ti4  1  0.25509833  0.24493781  0.51019666  1
  Ti  Ti5  1  0.74490167  0.75506219  0.48980334  1
  Fe  Fe6  1  0.00000000  0.00000000  0.00000000  1
