# generated using pymatgen
data_Li3PS4
_symmetry_space_group_name_H-M   'P 1'
_cell_length_a   13.18362387
_cell_length_b   8.13245436
_cell_length_c   6.21318401
_cell_angle_alpha   90.00000000
_cell_angle_beta   90.00000000
_cell_angle_gamma   90.00000000
_symmetry_Int_Tables_number   1
_chemical_formula_structural   Li3PS4
_chemical_formula_sum   'Li12 P4 S16'
_cell_volume   666.14788694
_cell_formula_units_Z   4
loop_
 _symmetry_equiv_pos_site_id
 _symmetry_equiv_pos_as_xyz
  1  'x, y, z'
loop_
 _atom_site_type_symbol
 _atom_site_label
 _atom_site_symmetry_multiplicity
 _atom_site_fract_x
 _atom_site_fract_y
 _atom_site_fract_z
 _atom_site_occupancy
  Li  Li0  1  0.33209651  0.03171973  0.38904116  1
  Li  Li1  1  0.66790349  0.96828027  0.61095884  1
  Li  Li2  1  0.16790349  0.96828027  0.88904116  1
  Li  Li3  1  0.83209651  0.03171973  0.11095884  1
  Li  Li4  1  0.66790349  0.53171973  0.61095884  1
  Li  Li5  1  0.33209651  0.46828027  0.38904116  1
  Li  Li6  1  0.83209651  0.46828027  0.11095884  1
  Li  Li7  1  0.16790349  0.53171973  0.88904116  1
  Li  Li8  1  0.00000000  0.00000000  0.50000000  1
  Li  Li9  1  0.50000000  0.00000000  0.00000000  1
  Li  Li10  1  0.00000000  0.50000000  0.50000000  1
  Li  Li11  1  0.50000000  0.50000000  0.00000000  1
  P  P12  1  0.08924276  0.25000000  0.15380043  1
  P  P13  1  0.91075724  0.75000000  0.84619957  1
  P  P14  1  0.41075724  0.75000000  0.65380043  1
  P  P15  1  0.58924276  0.25000000  0.34619957  1
  S  S16  1  0.10136397  0.25000000  0.82583755  1
  S  S17  1  0.89863603  0.75000000  0.17416245  1
  S  S18  1  0.39863603  0.75000000  0.32583755  1
  S  S19  1  0.60136397  0.25000000  0.67416245  1
  S  S20  1  0.94052690  0.25000000  0.27280680  1
  S  S21  1  0.05947310  0.75000000  0.72719320  1
  S  S22  1  0.55947310  0.75000000  0.77280680  1
  S  S23  1  0.44052690  0.25000000  0.22719320  1
  S  S24  1  0.15243790  0.03760197  0.27325178  1
  S  S25  1  0.84756210  0.96239803  0.72674822  1
  S  S26  1  0.34756210  0.96239803  0.77325178  1
  S  S27  1  0.65243790  0.03760197  0.22674822  1
  S  S28  1  0.84756210  0.53760197  0.72674822  1
  S  S29  1  0.15243790  0.46239803  0.27325178  1
  S  S30  1  0.65243790  0.46239803  0.22674822  1
  S  S31  1  0.34756210  0.53760197  0.77325178  1
