# generated using pymatgen
data_Hf2Si
_symmetry_space_group_name_H-M   'P 1'
_cell_length_a   5.20022986
_cell_length_b   5.32811520
_cell_length_c   5.32811520
_cell_angle_alpha   76.22303356
_cell_angle_beta   60.79085325
_cell_angle_gamma   60.79085320
_symmetry_Int_Tables_number   1
_chemical_formula_structural   Hf2Si
_chemical_formula_sum   'Hf4 Si2'
_cell_volume   112.47168398
_cell_formula_units_Z   2
loop_
 _symmetry_equiv_pos_site_id
 _symmetry_equiv_pos_as_xyz
  1  'x, y, z'
loop_
 _atom_site_type_symbol
 _atom_site_label
 _atom_site_symmetry_multiplicity
 _atom_site_fract_x
 _atom_site_fract_y
 _atom_site_fract_z
 _atom_site_occupancy
  Si  Si0  1  0.75000000  0.00000000  0.00000000  1
  Si  Si1  1  0.25000000  0.00000000  0.00000000  1
  Hf  Hf2  1  0.65702543  0.18594914  0.50000000  1
  Hf  Hf3  1  0.84297457  0.50000000  0.81405086  1
  Hf  Hf4  1  0.34297457  0.81405086  0.50000000  1
  Hf  Hf5  1  0.15702543  0.50000000  0.18594914  1
