# generated using pymatgen
data_Ba3(AlSi)2
_symmetry_space_group_name_H-M   'P 1'
_cell_length_a   4.31321693
_cell_length_b   5.13358708
_cell_length_c   10.58813715
_cell_angle_alpha   104.02626988
_cell_angle_beta   101.75233063
_cell_angle_gamma   90.00000003
_symmetry_Int_Tables_number   1
_chemical_formula_structural   Ba3(AlSi)2
_chemical_formula_sum   'Ba3 Al2 Si2'
_cell_volume   222.38632161
_cell_formula_units_Z   1
loop_
 _symmetry_equiv_pos_site_id
 _symmetry_equiv_pos_as_xyz
  1  'x, y, z'
loop_
 _atom_site_type_symbol
 _atom_site_label
 _atom_site_symmetry_multiplicity
 _atom_site_fract_x
 _atom_site_fract_y
 _atom_site_fract_z
 _atom_site_occupancy
  Al  Al0  1  0.06518702  0.56501307  0.13037403  1
  Al  Al1  1  0.93481298  0.43498693  0.86962597  1
  Si  Si2  1  0.63341974  0.63330104  0.26683949  1
  Si  Si3  1  0.36658026  0.36669896  0.73316051  1
  Ba  Ba4  1  0.50000000  0.00000000  0.00000000  1
  Ba  Ba5  1  0.81553456  0.81558672  0.63106911  1
  Ba  Ba6  1  0.18446544  0.18441328  0.36893089  1
