# generated using pymatgen
data_NbSnS2
_symmetry_space_group_name_H-M   'P 1'
_cell_length_a   3.35742985
_cell_length_b   3.35742985
_cell_length_c   17.58302857
_cell_angle_alpha   90.00000000
_cell_angle_beta   90.00000000
_cell_angle_gamma   120.00000009
_symmetry_Int_Tables_number   1
_chemical_formula_structural   NbSnS2
_chemical_formula_sum   'Nb2 Sn2 S4'
_cell_volume   171.64778671
_cell_formula_units_Z   2
loop_
 _symmetry_equiv_pos_site_id
 _symmetry_equiv_pos_as_xyz
  1  'x, y, z'
loop_
 _atom_site_type_symbol
 _atom_site_label
 _atom_site_symmetry_multiplicity
 _atom_site_fract_x
 _atom_site_fract_y
 _atom_site_fract_z
 _atom_site_occupancy
  S  S0  1  0.00000000  0.00000000  0.33892620  1
  S  S1  1  0.00000000  0.00000000  0.83892620  1
  S  S2  1  0.00000000  0.00000000  0.16107380  1
  S  S3  1  0.00000000  0.00000000  0.66107380  1
  Nb  Nb4  1  0.66666667  0.33333333  0.75000000  1
  Nb  Nb5  1  0.33333333  0.66666667  0.25000000  1
  Sn  Sn6  1  0.00000000  0.00000000  0.00000000  1
  Sn  Sn7  1  0.00000000  0.00000000  0.50000000  1
