# generated using pymatgen
data_TaNi2Te3
_symmetry_space_group_name_H-M   'P 1'
_cell_length_a   3.71615748
_cell_length_b   7.86020543
_cell_length_c   10.53373664
_cell_angle_alpha   110.31353957
_cell_angle_beta   90.00000000
_cell_angle_gamma   90.00000000
_symmetry_Int_Tables_number   1
_chemical_formula_structural   TaNi2Te3
_chemical_formula_sum   'Ta2 Ni4 Te6'
_cell_volume   288.55187295
_cell_formula_units_Z   2
loop_
 _symmetry_equiv_pos_site_id
 _symmetry_equiv_pos_as_xyz
  1  'x, y, z'
loop_
 _atom_site_type_symbol
 _atom_site_label
 _atom_site_symmetry_multiplicity
 _atom_site_fract_x
 _atom_site_fract_y
 _atom_site_fract_z
 _atom_site_occupancy
  Ni  Ni0  1  0.25000000  0.59535263  0.09190897  1
  Ni  Ni1  1  0.75000000  0.40464737  0.90809103  1
  Ni  Ni2  1  0.75000000  0.96216238  0.56566675  1
  Ni  Ni3  1  0.25000000  0.03783762  0.43433325  1
  Te  Te4  1  0.75000000  0.05710714  0.82641535  1
  Te  Te5  1  0.25000000  0.94289286  0.17358465  1
  Te  Te6  1  0.75000000  0.42312493  0.15801537  1
  Te  Te7  1  0.25000000  0.57687507  0.84198463  1
  Te  Te8  1  0.25000000  0.72378405  0.49237409  1
  Te  Te9  1  0.75000000  0.27621595  0.50762591  1
  Ta  Ta10  1  0.25000000  0.21171591  0.69929709  1
  Ta  Ta11  1  0.75000000  0.78828409  0.30070291  1
