# generated using pymatgen
data_TlPt2S3
_symmetry_space_group_name_H-M   'P 1'
_cell_length_a   7.21783803
_cell_length_b   7.21783804
_cell_length_c   6.21015793
_cell_angle_alpha   90.00000000
_cell_angle_beta   90.00000000
_cell_angle_gamma   120.00000001
_symmetry_Int_Tables_number   1
_chemical_formula_structural   TlPt2S3
_chemical_formula_sum   'Tl2 Pt4 S6'
_cell_volume   280.18671615
_cell_formula_units_Z   2
loop_
 _symmetry_equiv_pos_site_id
 _symmetry_equiv_pos_as_xyz
  1  'x, y, z'
loop_
 _atom_site_type_symbol
 _atom_site_label
 _atom_site_symmetry_multiplicity
 _atom_site_fract_x
 _atom_site_fract_y
 _atom_site_fract_z
 _atom_site_occupancy
  S  S0  1  0.82982384  0.17017616  0.18625706  1
  S  S1  1  0.82982384  0.65964768  0.18625706  1
  S  S2  1  0.34035232  0.17017616  0.18625706  1
  S  S3  1  0.65964768  0.82982384  0.81374294  1
  S  S4  1  0.17017616  0.82982384  0.81374294  1
  S  S5  1  0.17017616  0.34035232  0.81374294  1
  Pt  Pt6  1  0.00000000  0.00000000  0.00000000  1
  Pt  Pt7  1  0.00000000  0.50000000  0.00000000  1
  Pt  Pt8  1  0.50000000  0.00000000  0.00000000  1
  Pt  Pt9  1  0.50000000  0.50000000  0.00000000  1
  Tl  Tl10  1  0.66666667  0.33333333  0.62894018  1
  Tl  Tl11  1  0.33333333  0.66666667  0.37105982  1
