# generated using pymatgen
data_CoTe2
_symmetry_space_group_name_H-M   'P 1'
_cell_length_a   3.91818333
_cell_length_b   5.34242255
_cell_length_c   6.28602271
_cell_angle_alpha   90.00000000
_cell_angle_beta   90.00000000
_cell_angle_gamma   90.00000000
_symmetry_Int_Tables_number   1
_chemical_formula_structural   CoTe2
_chemical_formula_sum   'Co2 Te4'
_cell_volume   131.58274226
_cell_formula_units_Z   2
loop_
 _symmetry_equiv_pos_site_id
 _symmetry_equiv_pos_as_xyz
  1  'x, y, z'
loop_
 _atom_site_type_symbol
 _atom_site_label
 _atom_site_symmetry_multiplicity
 _atom_site_fract_x
 _atom_site_fract_y
 _atom_site_fract_z
 _atom_site_occupancy
  Co  Co0  1  0.00000000  0.00000000  0.00000000  1
  Co  Co1  1  0.50000000  0.50000000  0.50000000  1
  Te  Te2  1  0.00000000  0.22861114  0.36157406  1
  Te  Te3  1  0.00000000  0.77138886  0.63842594  1
  Te  Te4  1  0.50000000  0.72861114  0.13842594  1
  Te  Te5  1  0.50000000  0.27138886  0.86157406  1
