# generated using pymatgen
data_VP2
_symmetry_space_group_name_H-M   'P 1'
_cell_length_a   3.10677595
_cell_length_b   4.50421155
_cell_length_c   6.49439889
_cell_angle_alpha   79.15457782
_cell_angle_beta   76.16132788
_cell_angle_gamma   69.82586143
_symmetry_Int_Tables_number   1
_chemical_formula_structural   VP2
_chemical_formula_sum   'V2 P4'
_cell_volume   82.26955877
_cell_formula_units_Z   2
loop_
 _symmetry_equiv_pos_site_id
 _symmetry_equiv_pos_as_xyz
  1  'x, y, z'
loop_
 _atom_site_type_symbol
 _atom_site_label
 _atom_site_symmetry_multiplicity
 _atom_site_fract_x
 _atom_site_fract_y
 _atom_site_fract_z
 _atom_site_occupancy
  P  P0  1  0.14239311  0.74506924  0.97014454  1
  P  P1  1  0.85760689  0.25493076  0.02985546  1
  P  P2  1  0.39966312  0.79956054  0.40111322  1
  P  P3  1  0.60033688  0.20043946  0.59888678  1
  V  V4  1  0.84364708  0.61467656  0.69802927  1
  V  V5  1  0.15635292  0.38532344  0.30197073  1
