# generated using pymatgen
data_TiS3
_symmetry_space_group_name_H-M   'P 1'
_cell_length_a   3.41561713
_cell_length_b   5.02973032
_cell_length_c   9.51781416
_cell_angle_alpha   84.23301157
_cell_angle_beta   90.00000000
_cell_angle_gamma   90.00000000
_symmetry_Int_Tables_number   1
_chemical_formula_structural   TiS3
_chemical_formula_sum   'Ti2 S6'
_cell_volume   162.68497988
_cell_formula_units_Z   2
loop_
 _symmetry_equiv_pos_site_id
 _symmetry_equiv_pos_as_xyz
  1  'x, y, z'
loop_
 _atom_site_type_symbol
 _atom_site_label
 _atom_site_symmetry_multiplicity
 _atom_site_fract_x
 _atom_site_fract_y
 _atom_site_fract_z
 _atom_site_occupancy
  S  S0  1  0.25000000  0.10425166  0.19956470  1
  S  S1  1  0.75000000  0.89574834  0.80043530  1
  S  S2  1  0.75000000  0.75884884  0.45332684  1
  S  S3  1  0.25000000  0.24115116  0.54667316  1
  S  S4  1  0.75000000  0.48981393  0.80064368  1
  S  S5  1  0.25000000  0.51018607  0.19935632  1
  Ti  Ti6  1  0.25000000  0.72297201  0.64135522  1
  Ti  Ti7  1  0.75000000  0.27702799  0.35864478  1
