# generated using pymatgen
data_HfS3
_symmetry_space_group_name_H-M   'P 1'
_cell_length_a   3.61156672
_cell_length_b   5.14921004
_cell_length_c   9.70602806
_cell_angle_alpha   96.98825289
_cell_angle_beta   90.00000000
_cell_angle_gamma   90.00000000
_symmetry_Int_Tables_number   1
_chemical_formula_structural   HfS3
_chemical_formula_sum   'Hf2 S6'
_cell_volume   179.15932838
_cell_formula_units_Z   2
loop_
 _symmetry_equiv_pos_site_id
 _symmetry_equiv_pos_as_xyz
  1  'x, y, z'
loop_
 _atom_site_type_symbol
 _atom_site_label
 _atom_site_symmetry_multiplicity
 _atom_site_fract_x
 _atom_site_fract_y
 _atom_site_fract_z
 _atom_site_occupancy
  S  S0  1  0.25000000  0.88351320  0.19564042  1
  S  S1  1  0.75000000  0.11648680  0.80435958  1
  S  S2  1  0.75000000  0.23863437  0.45033298  1
  S  S3  1  0.25000000  0.76136563  0.54966702  1
  S  S4  1  0.75000000  0.52181445  0.80577310  1
  S  S5  1  0.25000000  0.47818555  0.19422690  1
  Hf  Hf6  1  0.25000000  0.28310598  0.64329085  1
  Hf  Hf7  1  0.75000000  0.71689402  0.35670915  1
