# generated using pymatgen
data_CdHgO2
_symmetry_space_group_name_H-M   'P 1'
_cell_length_a   3.57416186
_cell_length_b   3.57416185
_cell_length_c   6.46140361
_cell_angle_alpha   102.00055567
_cell_angle_beta   102.00055566
_cell_angle_gamma   59.88758256
_symmetry_Int_Tables_number   1
_chemical_formula_structural   CdHgO2
_chemical_formula_sum   'Cd1 Hg1 O2'
_cell_volume   69.31638746
_cell_formula_units_Z   1
loop_
 _symmetry_equiv_pos_site_id
 _symmetry_equiv_pos_as_xyz
  1  'x, y, z'
loop_
 _atom_site_type_symbol
 _atom_site_label
 _atom_site_symmetry_multiplicity
 _atom_site_fract_x
 _atom_site_fract_y
 _atom_site_fract_z
 _atom_site_occupancy
  O  O0  1  0.62049000  0.62049000  0.81855708  1
  O  O1  1  0.37951000  0.37951000  0.18144292  1
  Cd  Cd2  1  0.00000000  0.00000000  0.00000000  1
  Hg  Hg3  1  0.50000000  0.50000000  0.50000000  1
