# generated using pymatgen
data_K2ZnF4
_symmetry_space_group_name_H-M   'P 1'
_cell_length_a   4.14417028
_cell_length_b   4.14417027
_cell_length_c   7.24294494
_cell_angle_alpha   106.62360976
_cell_angle_beta   106.62360975
_cell_angle_gamma   90.00000000
_symmetry_Int_Tables_number   1
_chemical_formula_structural   K2ZnF4
_chemical_formula_sum   'K2 Zn1 F4'
_cell_volume   113.75610905
_cell_formula_units_Z   1
loop_
 _symmetry_equiv_pos_site_id
 _symmetry_equiv_pos_as_xyz
  1  'x, y, z'
loop_
 _atom_site_type_symbol
 _atom_site_label
 _atom_site_symmetry_multiplicity
 _atom_site_fract_x
 _atom_site_fract_y
 _atom_site_fract_z
 _atom_site_occupancy
  F  F0  1  0.50000000  0.00000000  0.00000000  1
  F  F1  1  0.00000000  0.50000000  0.00000000  1
  F  F2  1  0.84509818  0.84509818  0.69019636  1
  F  F3  1  0.15490182  0.15490182  0.30980364  1
  K  K4  1  0.35473211  0.35473211  0.70946422  1
  K  K5  1  0.64526789  0.64526789  0.29053578  1
  Zn  Zn6  1  0.00000000  0.00000000  0.00000000  1
