# generated using pymatgen
data_CaC2
_symmetry_space_group_name_H-M   'P 1'
_cell_length_a   3.84256141
_cell_length_b   4.06648138
_cell_length_c   7.46845527
_cell_angle_alpha   104.82247078
_cell_angle_beta   90.00000000
_cell_angle_gamma   118.19459355
_symmetry_Int_Tables_number   1
_chemical_formula_structural   CaC2
_chemical_formula_sum   'Ca2 C4'
_cell_volume   98.42497992
_cell_formula_units_Z   2
loop_
 _symmetry_equiv_pos_site_id
 _symmetry_equiv_pos_as_xyz
  1  'x, y, z'
loop_
 _atom_site_type_symbol
 _atom_site_label
 _atom_site_symmetry_multiplicity
 _atom_site_fract_x
 _atom_site_fract_y
 _atom_site_fract_z
 _atom_site_occupancy
  C  C0  1  0.07905924  0.15811848  0.56481609  1
  C  C1  1  0.92094076  0.84188152  0.43518391  1
  C  C2  1  0.45339071  0.90678142  0.05974686  1
  C  C3  1  0.54660929  0.09321858  0.94025314  1
  Ca  Ca4  1  0.79567624  0.59135247  0.75289689  1
  Ca  Ca5  1  0.20432376  0.40864753  0.24710311  1
