# generated using pymatgen
data_ScSi
_symmetry_space_group_name_H-M   'P 1'
_cell_length_a   3.66793132
_cell_length_b   4.00254547
_cell_length_c   5.34183403
_cell_angle_alpha   112.00215739
_cell_angle_beta   90.00000000
_cell_angle_gamma   90.00000000
_symmetry_Int_Tables_number   1
_chemical_formula_structural   ScSi
_chemical_formula_sum   'Sc2 Si2'
_cell_volume   72.71217120
_cell_formula_units_Z   2
loop_
 _symmetry_equiv_pos_site_id
 _symmetry_equiv_pos_as_xyz
  1  'x, y, z'
loop_
 _atom_site_type_symbol
 _atom_site_label
 _atom_site_symmetry_multiplicity
 _atom_site_fract_x
 _atom_site_fract_y
 _atom_site_fract_z
 _atom_site_occupancy
  Si  Si0  1  0.25000000  0.58129245  0.16258491  1
  Si  Si1  1  0.75000000  0.41870755  0.83741509  1
  Sc  Sc2  1  0.25000000  0.86111940  0.72223880  1
  Sc  Sc3  1  0.75000000  0.13888060  0.27776120  1
