# generated using pymatgen
data_HfCoAs
_symmetry_space_group_name_H-M   'P 1'
_cell_length_a   3.82430520
_cell_length_b   6.47205741
_cell_length_c   7.25943243
_cell_angle_alpha   90.00000000
_cell_angle_beta   90.00000000
_cell_angle_gamma   90.00000000
_symmetry_Int_Tables_number   1
_chemical_formula_structural   HfCoAs
_chemical_formula_sum   'Hf4 Co4 As4'
_cell_volume   179.67910359
_cell_formula_units_Z   4
loop_
 _symmetry_equiv_pos_site_id
 _symmetry_equiv_pos_as_xyz
  1  'x, y, z'
loop_
 _atom_site_type_symbol
 _atom_site_label
 _atom_site_symmetry_multiplicity
 _atom_site_fract_x
 _atom_site_fract_y
 _atom_site_fract_z
 _atom_site_occupancy
  Co  Co0  1  0.25000000  0.63887346  0.43632253  1
  Co  Co1  1  0.75000000  0.36112654  0.56367747  1
  Co  Co2  1  0.25000000  0.13887346  0.06367747  1
  Co  Co3  1  0.75000000  0.86112654  0.93632253  1
  As  As4  1  0.75000000  0.73214943  0.61577934  1
  As  As5  1  0.25000000  0.26785057  0.38422066  1
  As  As6  1  0.75000000  0.23214943  0.88422066  1
  As  As7  1  0.25000000  0.76785057  0.11577934  1
  Hf  Hf8  1  0.25000000  0.52010581  0.81301354  1
  Hf  Hf9  1  0.75000000  0.47989419  0.18698646  1
  Hf  Hf10  1  0.25000000  0.02010581  0.68698646  1
  Hf  Hf11  1  0.75000000  0.97989419  0.31301354  1
