# generated using pymatgen
data_V2GeC
_symmetry_space_group_name_H-M   'P 1'
_cell_length_a   3.01442565
_cell_length_b   3.01442565
_cell_length_c   12.16625124
_cell_angle_alpha   90.00000000
_cell_angle_beta   90.00000000
_cell_angle_gamma   119.99999992
_symmetry_Int_Tables_number   1
_chemical_formula_structural   V2GeC
_chemical_formula_sum   'V4 Ge2 C2'
_cell_volume   95.74069271
_cell_formula_units_Z   2
loop_
 _symmetry_equiv_pos_site_id
 _symmetry_equiv_pos_as_xyz
  1  'x, y, z'
loop_
 _atom_site_type_symbol
 _atom_site_label
 _atom_site_symmetry_multiplicity
 _atom_site_fract_x
 _atom_site_fract_y
 _atom_site_fract_z
 _atom_site_occupancy
  C  C0  1  0.00000000  0.00000000  0.50000000  1
  C  C1  1  0.00000000  0.00000000  0.00000000  1
  V  V2  1  0.66666667  0.33333333  0.58795721  1
  V  V3  1  0.33333333  0.66666667  0.41204279  1
  V  V4  1  0.33333333  0.66666667  0.08795721  1
  V  V5  1  0.66666667  0.33333333  0.91204279  1
  Ge  Ge6  1  0.66666667  0.33333333  0.25000000  1
  Ge  Ge7  1  0.33333333  0.66666667  0.75000000  1
