# generated using pymatgen
data_Y2Al3Si2
_symmetry_space_group_name_H-M   'P 1'
_cell_length_a   4.03934545
_cell_length_b   5.49538427
_cell_length_c   6.64007390
_cell_angle_alpha   100.29739300
_cell_angle_beta   90.00000000
_cell_angle_gamma   111.56284666
_symmetry_Int_Tables_number   1
_chemical_formula_structural   Y2Al3Si2
_chemical_formula_sum   'Y2 Al3 Si2'
_cell_volume   134.52333142
_cell_formula_units_Z   1
loop_
 _symmetry_equiv_pos_site_id
 _symmetry_equiv_pos_as_xyz
  1  'x, y, z'
loop_
 _atom_site_type_symbol
 _atom_site_label
 _atom_site_symmetry_multiplicity
 _atom_site_fract_x
 _atom_site_fract_y
 _atom_site_fract_z
 _atom_site_occupancy
  Y  Y0  1  0.37990981  0.75981961  0.67756390  1
  Y  Y1  1  0.62009019  0.24018039  0.32243610  1
  Al  Al2  1  0.69441635  0.38883270  0.86660678  1
  Al  Al3  1  -0.00000000  -0.00000000  -0.00000000  1
  Al  Al4  1  0.30558365  0.61116730  0.13339322  1
  Si  Si5  1  0.90731049  0.81461997  0.35944580  1
  Si  Si6  1  0.09268951  0.18538003  0.64055420  1
