# generated using pymatgen
data_Y4C5
_symmetry_space_group_name_H-M   'P 1'
_cell_length_a   3.68341189
_cell_length_b   6.60634524
_cell_length_c   11.99585849
_cell_angle_alpha   90.00000000
_cell_angle_beta   90.00000000
_cell_angle_gamma   90.00000000
_symmetry_Int_Tables_number   1
_chemical_formula_structural   Y4C5
_chemical_formula_sum   'Y8 C10'
_cell_volume   291.90590823
_cell_formula_units_Z   2
loop_
 _symmetry_equiv_pos_site_id
 _symmetry_equiv_pos_as_xyz
  1  'x, y, z'
loop_
 _atom_site_type_symbol
 _atom_site_label
 _atom_site_symmetry_multiplicity
 _atom_site_fract_x
 _atom_site_fract_y
 _atom_site_fract_z
 _atom_site_occupancy
  C  C0  1  0.50000000  0.50000000  0.50000000  1
  C  C1  1  0.50000000  0.00000000  0.00000000  1
  C  C2  1  0.00000000  0.36043823  0.73608511  1
  C  C3  1  0.00000000  0.63956177  0.26391489  1
  C  C4  1  0.00000000  0.86043823  0.76391489  1
  C  C5  1  0.00000000  0.13956177  0.23608511  1
  C  C6  1  0.00000000  0.40250363  0.84465315  1
  C  C7  1  0.00000000  0.59749637  0.15534685  1
  C  C8  1  0.00000000  0.09749637  0.34465315  1
  C  C9  1  0.00000000  0.90250363  0.65534685  1
  Y  Y10  1  0.00000000  0.25658510  0.54286903  1
  Y  Y11  1  0.00000000  0.74341490  0.45713097  1
  Y  Y12  1  0.00000000  0.75658510  0.95713097  1
  Y  Y13  1  0.00000000  0.24341490  0.04286903  1
  Y  Y14  1  0.50000000  0.10678434  0.80402251  1
  Y  Y15  1  0.50000000  0.89321566  0.19597749  1
  Y  Y16  1  0.50000000  0.60678434  0.69597749  1
  Y  Y17  1  0.50000000  0.39321566  0.30402251  1
