# generated using pymatgen
data_Al2Cu
_symmetry_space_group_name_H-M   'P 1'
_cell_length_a   4.81864315
_cell_length_b   4.92816632
_cell_length_c   4.92816632
_cell_angle_alpha   76.17179340
_cell_angle_beta   60.73247802
_cell_angle_gamma   60.73247808
_symmetry_Int_Tables_number   1
_chemical_formula_structural   Al2Cu
_chemical_formula_sum   'Al4 Cu2'
_cell_volume   89.05812804
_cell_formula_units_Z   2
loop_
 _symmetry_equiv_pos_site_id
 _symmetry_equiv_pos_as_xyz
  1  'x, y, z'
loop_
 _atom_site_type_symbol
 _atom_site_label
 _atom_site_symmetry_multiplicity
 _atom_site_fract_x
 _atom_site_fract_y
 _atom_site_fract_z
 _atom_site_occupancy
  Al  Al0  1  0.15761130  0.50000000  0.18477740  1
  Al  Al1  1  0.34238870  0.81522260  0.50000000  1
  Al  Al2  1  0.65761130  0.18477740  0.50000000  1
  Al  Al3  1  0.84238870  0.50000000  0.81522260  1
  Cu  Cu4  1  0.25000000  0.00000000  0.00000000  1
  Cu  Cu5  1  0.75000000  0.00000000  0.00000000  1
