# generated using pymatgen
data_CuP2
_symmetry_space_group_name_H-M   'P 1'
_cell_length_a   4.82006694
_cell_length_b   5.80453105
_cell_length_c   7.53230407
_cell_angle_alpha   112.64072084
_cell_angle_beta   90.00000000
_cell_angle_gamma   90.00000000
_symmetry_Int_Tables_number   1
_chemical_formula_structural   CuP2
_chemical_formula_sum   'Cu4 P8'
_cell_volume   194.50019589
_cell_formula_units_Z   4
loop_
 _symmetry_equiv_pos_site_id
 _symmetry_equiv_pos_as_xyz
  1  'x, y, z'
loop_
 _atom_site_type_symbol
 _atom_site_label
 _atom_site_symmetry_multiplicity
 _atom_site_fract_x
 _atom_site_fract_y
 _atom_site_fract_z
 _atom_site_occupancy
  P  P0  1  0.38436581  0.67387971  0.08016807  1
  P  P1  1  0.88436581  0.82612029  0.41983193  1
  P  P2  1  0.61563419  0.32612029  0.91983193  1
  P  P3  1  0.11563419  0.17387971  0.58016807  1
  P  P4  1  0.77756339  0.45269873  0.69873560  1
  P  P5  1  0.27756339  0.04730127  0.80126440  1
  P  P6  1  0.22243661  0.54730127  0.30126440  1
  P  P7  1  0.72243661  0.95269873  0.19873560  1
  Cu  Cu8  1  0.03760494  0.77213018  0.91817313  1
  Cu  Cu9  1  0.53760494  0.72786982  0.58182687  1
  Cu  Cu10  1  0.96239506  0.22786982  0.08182687  1
  Cu  Cu11  1  0.46239506  0.27213018  0.41817313  1
