# generated using pymatgen
data_BaSb2Pd
_symmetry_space_group_name_H-M   'P 1'
_cell_length_a   4.95780954
_cell_length_b   4.98560857
_cell_length_c   9.71972541
_cell_angle_alpha   90.00000000
_cell_angle_beta   104.77587003
_cell_angle_gamma   90.00000000
_symmetry_Int_Tables_number   1
_chemical_formula_structural   BaSb2Pd
_chemical_formula_sum   'Ba2 Sb4 Pd2'
_cell_volume   232.30440472
_cell_formula_units_Z   2
loop_
 _symmetry_equiv_pos_site_id
 _symmetry_equiv_pos_as_xyz
  1  'x, y, z'
loop_
 _atom_site_type_symbol
 _atom_site_label
 _atom_site_symmetry_multiplicity
 _atom_site_fract_x
 _atom_site_fract_y
 _atom_site_fract_z
 _atom_site_occupancy
  Pd  Pd0  1  0.81386409  0.25000000  0.62772818  1
  Pd  Pd1  1  0.18613591  0.75000000  0.37227182  1
  Sb  Sb2  1  0.04247195  0.75000000  0.08494390  1
  Sb  Sb3  1  0.95752805  0.25000000  0.91505610  1
  Sb  Sb4  1  0.24969917  0.25000000  0.49939834  1
  Sb  Sb5  1  0.75030083  0.75000000  0.50060166  1
  Ba  Ba6  1  0.39339957  0.75000000  0.78679915  1
  Ba  Ba7  1  0.60660043  0.25000000  0.21320085  1
