# generated using pymatgen
data_MgMn2O4
_symmetry_space_group_name_H-M   'P 1'
_cell_length_a   3.00985716
_cell_length_b   9.61985401
_cell_length_c   9.91761679
_cell_angle_alpha   89.99988183
_cell_angle_beta   89.99959696
_cell_angle_gamma   89.99982516
_symmetry_Int_Tables_number   1
_chemical_formula_structural   MgMn2O4
_chemical_formula_sum   'Mg4 Mn8 O16'
_cell_volume   287.15850940
_cell_formula_units_Z   4
loop_
 _symmetry_equiv_pos_site_id
 _symmetry_equiv_pos_as_xyz
  1  'x, y, z'
loop_
 _atom_site_type_symbol
 _atom_site_label
 _atom_site_symmetry_multiplicity
 _atom_site_fract_x
 _atom_site_fract_y
 _atom_site_fract_z
 _atom_site_occupancy
  Mg  Mg0  1  0.32688144  0.75000176  0.14673486  1
  Mg  Mg1  1  0.32686172  0.24999858  0.35327032  1
  Mg  Mg2  1  0.67312007  0.74999846  0.64673296  1
  Mg  Mg3  1  0.67313022  0.25000015  0.85327003  1
  Mn  Mn4  1  0.79733812  0.57084611  0.38462442  1
  Mn  Mn5  1  0.79733770  0.07084556  0.11536565  1
  Mn  Mn6  1  0.20266829  0.07084632  0.61537589  1
  Mn  Mn7  1  0.79732973  0.42915660  0.11537188  1
  Mn  Mn8  1  0.20267552  0.42915665  0.61536942  1
  Mn  Mn9  1  0.79733910  0.92915145  0.38462599  1
  Mn  Mn10  1  0.20265987  0.92915199  0.88462893  1
  Mn  Mn11  1  0.20265712  0.57084833  0.88463138  1
  O  O12  1  0.20290299  0.88506727  0.53290339  1
  O  O13  1  0.79709732  0.11493118  0.46709691  1
  O  O14  1  0.37565996  0.99999763  0.25000030  1
  O  O15  1  0.79709575  0.88506887  0.03290154  1
  O  O16  1  0.79709494  0.61493234  0.03290489  1
  O  O17  1  0.82236554  0.25000095  0.20654221  1
  O  O18  1  0.20290301  0.11493139  0.96709526  1
  O  O19  1  0.17763085  0.25000145  0.70653981  1
  O  O20  1  0.37566252  0.50000240  0.25000325  1
  O  O21  1  0.62434111  0.99999713  0.74999645  1
  O  O22  1  0.20290616  0.61493228  0.53290323  1
  O  O23  1  0.17762776  0.74999773  0.79345887  1
  O  O24  1  0.82237379  0.74999973  0.29346025  1
  O  O25  1  0.62433666  0.50000221  0.74999786  1
  O  O26  1  0.20290235  0.38506940  0.96709815  1
  O  O27  1  0.79710139  0.38506807  0.46709688  1
